/*---------------------------------------------------------------------------*\
| =========                 |                                                 |
| \\      /  F ield         | OpenFOAM: The Open Source CFD Toolbox           |
|  \\    /   O peration     | Version:  2306                                  |
|   \\  /    A nd           | Website:  www.openfoam.com                      |
|    \\/     M anipulation  |                                                 |
\*---------------------------------------------------------------------------*/
Build  : _fbf00d6b-20230626 OPENFOAM=2306 version=2306
Arch   : "LSB;label=32;scalar=64"
Exec   : simpleFoam
Date   : Feb 20 2024
Time   : 18:43:10
Host   : johanes2022
PID    : 40602
I/O    : uncollated
Case   : /home/juan/OpenFOAM/juan-v2306/run/Skill_Lync/Introduction_to_OpenFOAM_development/Week10-Challenge/backwardFacingStep2D/kEpsilon
nProcs : 1
trapFpe: Floating point exception trapping enabled (FOAM_SIGFPE).
fileModificationChecking : Monitoring run-time modified files using timeStampMaster (fileModificationSkew 5, maxFileModificationPolls 20)
allowSystemOperations : Allowing user-supplied system call operations

// * * * * * * * * * * * * * * * * * * * * * * * * * * * * * * * * * * * * * //
Create time

Create mesh for time = 0


SIMPLE: convergence criteria
    field p	 tolerance 0.0001
    field U	 tolerance 1e-06
    field "(k|epsilon|omega|f|v2)"	 tolerance 1e-05

Reading field p

Reading field U

Reading/calculating face flux field phi

Selecting incompressible transport model Newtonian
Selecting turbulence model type RAS
Selecting RAS turbulence model kEpsilon
RAS
{
    RASModel        kEpsilon;
    turbulence      on;
    printCoeffs     on;
    Cmu             0.09;
    C1              1.44;
    C2              1.92;
    C3              0;
    sigmak          1;
    sigmaEps        1.3;
}

No MRF models present

No finite volume options present

Starting time loop

turbulenceFields stressComponents: storing fields:
    turbulenceProperties:devReff

pressure pressureCoefficient:
    Operating mode: staticCoeff
    Not including hydrostatic effects

Sampled set:
    Uref -> raw
    x_by_h_m04 -> raw
    x_by_h_01 -> raw
    x_by_h_04 -> raw
    x_by_h_06 -> raw
    x_by_h_10 -> raw

wallShearStress wallShearStress:
    processing all wall patches

Time = 1

smoothSolver:  Solving for Ux, Initial residual = 1, Final residual = 0.0643834, No Iterations 4
smoothSolver:  Solving for Uy, Initial residual = 1, Final residual = 0.0886524, No Iterations 4
GAMG:  Solving for p, Initial residual = 1, Final residual = 0.0595309, No Iterations 10
time step continuity errors : sum local = 1.11241, global = -0.124674, cumulative = -0.124674
smoothSolver:  Solving for epsilon, Initial residual = 0.27642, Final residual = 0.0165034, No Iterations 2
bounding epsilon, min: -226.586 max: 1.66802e+06 average: 37494.4
smoothSolver:  Solving for k, Initial residual = 1, Final residual = 0.0517057, No Iterations 2
ExecutionTime = 0.29 s  ClockTime = 0 s

Time = 2

smoothSolver:  Solving for Ux, Initial residual = 0.0229108, Final residual = 0.00144909, No Iterations 4
smoothSolver:  Solving for Uy, Initial residual = 0.0405711, Final residual = 0.0030739, No Iterations 4
GAMG:  Solving for p, Initial residual = 0.0920029, Final residual = 0.00638218, No Iterations 3
time step continuity errors : sum local = 5.48476, global = -0.666816, cumulative = -0.791491
smoothSolver:  Solving for epsilon, Initial residual = 0.00367872, Final residual = 0.000247155, No Iterations 2
smoothSolver:  Solving for k, Initial residual = 0.399138, Final residual = 0.0176096, No Iterations 3
ExecutionTime = 0.33 s  ClockTime = 0 s

Time = 3

smoothSolver:  Solving for Ux, Initial residual = 0.0183978, Final residual = 0.00130768, No Iterations 4
smoothSolver:  Solving for Uy, Initial residual = 0.22339, Final residual = 0.0128718, No Iterations 4
GAMG:  Solving for p, Initial residual = 0.212548, Final residual = 0.0149046, No Iterations 2
time step continuity errors : sum local = 3.79598, global = 0.279876, cumulative = -0.511614
smoothSolver:  Solving for epsilon, Initial residual = 0.0194698, Final residual = 0.000680707, No Iterations 2
bounding epsilon, min: -121.498 max: 5.35866e+07 average: 132444
smoothSolver:  Solving for k, Initial residual = 0.196636, Final residual = 0.0104983, No Iterations 3
ExecutionTime = 0.35 s  ClockTime = 0 s

Time = 4

smoothSolver:  Solving for Ux, Initial residual = 0.0224744, Final residual = 0.00203121, No Iterations 4
smoothSolver:  Solving for Uy, Initial residual = 0.093884, Final residual = 0.00589593, No Iterations 4
GAMG:  Solving for p, Initial residual = 0.151566, Final residual = 0.00995654, No Iterations 2
time step continuity errors : sum local = 1.53651, global = 0.382373, cumulative = -0.129241
smoothSolver:  Solving for epsilon, Initial residual = 0.165136, Final residual = 0.00365489, No Iterations 1
smoothSolver:  Solving for k, Initial residual = 0.122788, Final residual = 0.00720455, No Iterations 3
ExecutionTime = 0.38 s  ClockTime = 0 s

Time = 5

smoothSolver:  Solving for Ux, Initial residual = 0.0120695, Final residual = 0.000818513, No Iterations 5
smoothSolver:  Solving for Uy, Initial residual = 0.0710507, Final residual = 0.00676031, No Iterations 3
GAMG:  Solving for p, Initial residual = 0.130053, Final residual = 0.0058643, No Iterations 3
time step continuity errors : sum local = 0.652854, global = -0.039699, cumulative = -0.16894
smoothSolver:  Solving for epsilon, Initial residual = 0.122887, Final residual = 0.0116829, No Iterations 1
smoothSolver:  Solving for k, Initial residual = 0.091288, Final residual = 0.00588426, No Iterations 3
ExecutionTime = 0.4 s  ClockTime = 0 s

Time = 6

smoothSolver:  Solving for Ux, Initial residual = 0.0128016, Final residual = 0.00106182, No Iterations 5
smoothSolver:  Solving for Uy, Initial residual = 0.119017, Final residual = 0.00799907, No Iterations 4
GAMG:  Solving for p, Initial residual = 0.130695, Final residual = 0.00583798, No Iterations 2
time step continuity errors : sum local = 0.547858, global = -0.135922, cumulative = -0.304862
smoothSolver:  Solving for epsilon, Initial residual = 0.116236, Final residual = 0.00446881, No Iterations 2
bounding epsilon, min: -23402.9 max: 8.0471e+07 average: 27694.7
smoothSolver:  Solving for k, Initial residual = 0.0729739, Final residual = 0.00496904, No Iterations 3
ExecutionTime = 0.43 s  ClockTime = 0 s

Time = 7

smoothSolver:  Solving for Ux, Initial residual = 0.0125252, Final residual = 0.00115182, No Iterations 5
smoothSolver:  Solving for Uy, Initial residual = 0.081525, Final residual = 0.00584417, No Iterations 4
GAMG:  Solving for p, Initial residual = 0.0932089, Final residual = 0.00374764, No Iterations 2
time step continuity errors : sum local = 0.34398, global = -0.109109, cumulative = -0.413971
smoothSolver:  Solving for epsilon, Initial residual = 0.125519, Final residual = 0.011611, No Iterations 1
smoothSolver:  Solving for k, Initial residual = 0.0603117, Final residual = 0.00423509, No Iterations 3
ExecutionTime = 0.45 s  ClockTime = 0 s

Time = 8

smoothSolver:  Solving for Ux, Initial residual = 0.0116341, Final residual = 0.00114586, No Iterations 5
smoothSolver:  Solving for Uy, Initial residual = 0.0599383, Final residual = 0.00440219, No Iterations 4
GAMG:  Solving for p, Initial residual = 0.0811282, Final residual = 0.00494104, No Iterations 1
time step continuity errors : sum local = 0.444302, global = -0.0211486, cumulative = -0.43512
smoothSolver:  Solving for epsilon, Initial residual = 0.26803, Final residual = 0.00308349, No Iterations 1
bounding epsilon, min: -3618.95 max: 2.07207e+08 average: 78985.4
smoothSolver:  Solving for k, Initial residual = 0.055281, Final residual = 0.00384038, No Iterations 3
ExecutionTime = 0.48 s  ClockTime = 0 s

Time = 9

smoothSolver:  Solving for Ux, Initial residual = 0.010315, Final residual = 0.000696617, No Iterations 6
smoothSolver:  Solving for Uy, Initial residual = 0.0513014, Final residual = 0.00399642, No Iterations 4
GAMG:  Solving for p, Initial residual = 0.0721252, Final residual = 0.00401271, No Iterations 1
time step continuity errors : sum local = 0.337045, global = -0.0659221, cumulative = -0.501042
smoothSolver:  Solving for epsilon, Initial residual = 0.261337, Final residual = 0.00387711, No Iterations 1
bounding epsilon, min: -8914.6 max: 1.79064e+08 average: 92276.8
smoothSolver:  Solving for k, Initial residual = 0.0498448, Final residual = 0.00350917, No Iterations 3
ExecutionTime = 0.5 s  ClockTime = 0 s

Time = 10

smoothSolver:  Solving for Ux, Initial residual = 0.0134522, Final residual = 0.000942604, No Iterations 6
smoothSolver:  Solving for Uy, Initial residual = 0.0502992, Final residual = 0.00417504, No Iterations 4
GAMG:  Solving for p, Initial residual = 0.0651132, Final residual = 0.004563, No Iterations 1
time step continuity errors : sum local = 0.35448, global = -0.00397594, cumulative = -0.505018
smoothSolver:  Solving for epsilon, Initial residual = 0.0930794, Final residual = 0.00375029, No Iterations 1
smoothSolver:  Solving for k, Initial residual = 0.0413823, Final residual = 0.00316912, No Iterations 3
ExecutionTime = 0.52 s  ClockTime = 0 s

Time = 11

smoothSolver:  Solving for Ux, Initial residual = 0.00784833, Final residual = 0.000561745, No Iterations 6
smoothSolver:  Solving for Uy, Initial residual = 0.0371872, Final residual = 0.00319568, No Iterations 4
GAMG:  Solving for p, Initial residual = 0.0543641, Final residual = 0.00371259, No Iterations 1
time step continuity errors : sum local = 0.273815, global = -0.0266348, cumulative = -0.531653
smoothSolver:  Solving for epsilon, Initial residual = 0.0243419, Final residual = 0.00135012, No Iterations 2
smoothSolver:  Solving for k, Initial residual = 0.0374705, Final residual = 0.00292595, No Iterations 3
ExecutionTime = 0.54 s  ClockTime = 0 s

Time = 12

smoothSolver:  Solving for Ux, Initial residual = 0.0117626, Final residual = 0.000864382, No Iterations 6
smoothSolver:  Solving for Uy, Initial residual = 0.0393284, Final residual = 0.00370384, No Iterations 4
GAMG:  Solving for p, Initial residual = 0.051337, Final residual = 0.0039037, No Iterations 1
time step continuity errors : sum local = 0.271291, global = 0.0110993, cumulative = -0.520553
smoothSolver:  Solving for epsilon, Initial residual = 0.0205347, Final residual = 0.00134228, No Iterations 2
smoothSolver:  Solving for k, Initial residual = 0.0339879, Final residual = 0.00268134, No Iterations 3
ExecutionTime = 0.57 s  ClockTime = 0 s

Time = 13

smoothSolver:  Solving for Ux, Initial residual = 0.0126452, Final residual = 0.000947006, No Iterations 6
smoothSolver:  Solving for Uy, Initial residual = 0.0381186, Final residual = 0.00372327, No Iterations 4
GAMG:  Solving for p, Initial residual = 0.0530257, Final residual = 0.00376824, No Iterations 1
time step continuity errors : sum local = 0.250977, global = -0.00187443, cumulative = -0.522428
smoothSolver:  Solving for epsilon, Initial residual = 0.0542336, Final residual = 0.00265777, No Iterations 2
smoothSolver:  Solving for k, Initial residual = 0.0316663, Final residual = 0.00250817, No Iterations 3
ExecutionTime = 0.59 s  ClockTime = 0 s

Time = 14

smoothSolver:  Solving for Ux, Initial residual = 0.012259, Final residual = 0.000891539, No Iterations 6
smoothSolver:  Solving for Uy, Initial residual = 0.353973, Final residual = 0.0296358, No Iterations 1
GAMG:  Solving for p, Initial residual = 0.0468441, Final residual = 0.00375235, No Iterations 1
time step continuity errors : sum local = 0.237746, global = 0.0427256, cumulative = -0.479702
smoothSolver:  Solving for epsilon, Initial residual = 3.41946e-07, Final residual = 1.81499e-08, No Iterations 2
smoothSolver:  Solving for k, Initial residual = 0.640389, Final residual = 0.0350488, No Iterations 1
ExecutionTime = 0.61 s  ClockTime = 0 s

Time = 15

smoothSolver:  Solving for Ux, Initial residual = 0.0100646, Final residual = 0.000765315, No Iterations 6
smoothSolver:  Solving for Uy, Initial residual = 0.0464724, Final residual = 0.00408983, No Iterations 5
GAMG:  Solving for p, Initial residual = 0.0568706, Final residual = 0.0045391, No Iterations 1
time step continuity errors : sum local = 0.294984, global = 0.0137493, cumulative = -0.465953
smoothSolver:  Solving for epsilon, Initial residual = 0.0268138, Final residual = 7.22445e-05, No Iterations 1
smoothSolver:  Solving for k, Initial residual = 0.0296524, Final residual = 0.00224157, No Iterations 3
ExecutionTime = 0.63 s  ClockTime = 0 s

Time = 16

smoothSolver:  Solving for Ux, Initial residual = 0.00713102, Final residual = 0.00054514, No Iterations 6
smoothSolver:  Solving for Uy, Initial residual = 0.0300374, Final residual = 0.0019807, No Iterations 5
GAMG:  Solving for p, Initial residual = 0.053291, Final residual = 0.00528637, No Iterations 1
time step continuity errors : sum local = 0.333759, global = 0.0689471, cumulative = -0.397006
smoothSolver:  Solving for epsilon, Initial residual = 0.0117749, Final residual = 9.39261e-05, No Iterations 1
smoothSolver:  Solving for k, Initial residual = 0.0260993, Final residual = 0.00207951, No Iterations 3
ExecutionTime = 0.66 s  ClockTime = 0 s

Time = 17

smoothSolver:  Solving for Ux, Initial residual = 0.0106313, Final residual = 0.000814042, No Iterations 6
smoothSolver:  Solving for Uy, Initial residual = 0.0276166, Final residual = 0.00172397, No Iterations 5
GAMG:  Solving for p, Initial residual = 0.0485396, Final residual = 0.00410402, No Iterations 1
time step continuity errors : sum local = 0.243323, global = 0.0381127, cumulative = -0.358893
smoothSolver:  Solving for epsilon, Initial residual = 0.00355431, Final residual = 0.000291485, No Iterations 1
smoothSolver:  Solving for k, Initial residual = 0.024422, Final residual = 0.00197621, No Iterations 3
ExecutionTime = 0.68 s  ClockTime = 0 s

Time = 18

smoothSolver:  Solving for Ux, Initial residual = 0.010404, Final residual = 0.000804828, No Iterations 6
smoothSolver:  Solving for Uy, Initial residual = 0.0245338, Final residual = 0.00244408, No Iterations 4
GAMG:  Solving for p, Initial residual = 0.037252, Final residual = 0.00303301, No Iterations 1
time step continuity errors : sum local = 0.168473, global = 0.0309961, cumulative = -0.327897
smoothSolver:  Solving for epsilon, Initial residual = 0.00184846, Final residual = 0.000111886, No Iterations 2
smoothSolver:  Solving for k, Initial residual = 0.02299, Final residual = 0.00188111, No Iterations 3
ExecutionTime = 0.71 s  ClockTime = 0 s

Time = 19

smoothSolver:  Solving for Ux, Initial residual = 0.0101045, Final residual = 0.000787059, No Iterations 6
smoothSolver:  Solving for Uy, Initial residual = 0.0224525, Final residual = 0.00141148, No Iterations 5
GAMG:  Solving for p, Initial residual = 0.0327768, Final residual = 0.0026664, No Iterations 1
time step continuity errors : sum local = 0.141638, global = 0.0142287, cumulative = -0.313668
smoothSolver:  Solving for epsilon, Initial residual = 0.00112759, Final residual = 5.99977e-05, No Iterations 3
smoothSolver:  Solving for k, Initial residual = 0.0218175, Final residual = 0.00179359, No Iterations 3
ExecutionTime = 0.73 s  ClockTime = 0 s

Time = 20

smoothSolver:  Solving for Ux, Initial residual = 0.00605346, Final residual = 0.00046932, No Iterations 6
smoothSolver:  Solving for Uy, Initial residual = 0.0164047, Final residual = 0.00157964, No Iterations 4
GAMG:  Solving for p, Initial residual = 0.0287345, Final residual = 0.00281783, No Iterations 1
time step continuity errors : sum local = 0.144229, global = 0.0115144, cumulative = -0.302154
smoothSolver:  Solving for epsilon, Initial residual = 0.00117093, Final residual = 6.98665e-05, No Iterations 3
smoothSolver:  Solving for k, Initial residual = 0.0208015, Final residual = 0.0017111, No Iterations 3
ExecutionTime = 0.75 s  ClockTime = 0 s

Time = 21

smoothSolver:  Solving for Ux, Initial residual = 0.00982208, Final residual = 0.00077229, No Iterations 6
smoothSolver:  Solving for Uy, Initial residual = 0.019045, Final residual = 0.00126924, No Iterations 5
GAMG:  Solving for p, Initial residual = 0.0265319, Final residual = 0.00105391, No Iterations 2
time step continuity errors : sum local = 0.0523446, global = 0.00810582, cumulative = -0.294048
smoothSolver:  Solving for epsilon, Initial residual = 0.00329732, Final residual = 0.000243005, No Iterations 2
smoothSolver:  Solving for k, Initial residual = 0.0199487, Final residual = 0.00163661, No Iterations 3
ExecutionTime = 0.78 s  ClockTime = 0 s

Time = 22

smoothSolver:  Solving for Ux, Initial residual = 0.00726434, Final residual = 0.000565718, No Iterations 6
smoothSolver:  Solving for Uy, Initial residual = 0.014777, Final residual = 0.00100512, No Iterations 5
GAMG:  Solving for p, Initial residual = 0.0245226, Final residual = 0.00149698, No Iterations 1
time step continuity errors : sum local = 0.0714299, global = -0.00404341, cumulative = -0.298091
smoothSolver:  Solving for epsilon, Initial residual = 0.00333912, Final residual = 0.00018727, No Iterations 2
smoothSolver:  Solving for k, Initial residual = 0.0191161, Final residual = 0.00156906, No Iterations 3
ExecutionTime = 0.8 s  ClockTime = 0 s

Time = 23

smoothSolver:  Solving for Ux, Initial residual = 0.0091978, Final residual = 0.000723079, No Iterations 6
smoothSolver:  Solving for Uy, Initial residual = 0.0153479, Final residual = 0.00107215, No Iterations 5
GAMG:  Solving for p, Initial residual = 0.0239361, Final residual = 0.000976915, No Iterations 2
time step continuity errors : sum local = 0.0453044, global = -0.00234316, cumulative = -0.300435
smoothSolver:  Solving for epsilon, Initial residual = 0.00188354, Final residual = 0.000107852, No Iterations 3
smoothSolver:  Solving for k, Initial residual = 0.0184041, Final residual = 0.00150577, No Iterations 3
ExecutionTime = 0.83 s  ClockTime = 1 s

Time = 24

smoothSolver:  Solving for Ux, Initial residual = 0.00917719, Final residual = 0.000719153, No Iterations 6
smoothSolver:  Solving for Uy, Initial residual = 0.0139103, Final residual = 0.000980377, No Iterations 5
GAMG:  Solving for p, Initial residual = 0.0207627, Final residual = 0.00152344, No Iterations 1
time step continuity errors : sum local = 0.0692674, global = 0.00268289, cumulative = -0.297752
smoothSolver:  Solving for epsilon, Initial residual = 0.00198188, Final residual = 0.000124978, No Iterations 3
smoothSolver:  Solving for k, Initial residual = 0.0177723, Final residual = 0.00144905, No Iterations 3
ExecutionTime = 0.85 s  ClockTime = 1 s

Time = 25

smoothSolver:  Solving for Ux, Initial residual = 0.00911178, Final residual = 0.000717722, No Iterations 6
smoothSolver:  Solving for Uy, Initial residual = 0.0130905, Final residual = 0.000942699, No Iterations 5
GAMG:  Solving for p, Initial residual = 0.0220279, Final residual = 0.000702425, No Iterations 2
time step continuity errors : sum local = 0.0312691, global = 0.00273343, cumulative = -0.295018
smoothSolver:  Solving for epsilon, Initial residual = 0.00219489, Final residual = 0.000138914, No Iterations 3
smoothSolver:  Solving for k, Initial residual = 0.0172266, Final residual = 0.00139679, No Iterations 3
ExecutionTime = 0.88 s  ClockTime = 1 s

Time = 26

smoothSolver:  Solving for Ux, Initial residual = 0.00537411, Final residual = 0.000415855, No Iterations 6
smoothSolver:  Solving for Uy, Initial residual = 0.00974202, Final residual = 0.000662925, No Iterations 5
GAMG:  Solving for p, Initial residual = 0.0190764, Final residual = 0.00149191, No Iterations 1
time step continuity errors : sum local = 0.0641533, global = -0.00149838, cumulative = -0.296517
smoothSolver:  Solving for epsilon, Initial residual = 0.00248029, Final residual = 0.000149432, No Iterations 3
smoothSolver:  Solving for k, Initial residual = 0.0167248, Final residual = 0.00134951, No Iterations 3
ExecutionTime = 0.9 s  ClockTime = 1 s

Time = 27

smoothSolver:  Solving for Ux, Initial residual = 0.00891153, Final residual = 0.000699461, No Iterations 6
smoothSolver:  Solving for Uy, Initial residual = 0.0114358, Final residual = 0.000848871, No Iterations 5
GAMG:  Solving for p, Initial residual = 0.0228692, Final residual = 0.000845324, No Iterations 2
time step continuity errors : sum local = 0.0354213, global = 0.000640028, cumulative = -0.295877
smoothSolver:  Solving for epsilon, Initial residual = 0.00500895, Final residual = 0.000440568, No Iterations 2
smoothSolver:  Solving for k, Initial residual = 0.0163121, Final residual = 0.00130588, No Iterations 3
ExecutionTime = 0.92 s  ClockTime = 1 s

Time = 28

smoothSolver:  Solving for Ux, Initial residual = 0.00894777, Final residual = 0.000699725, No Iterations 6
smoothSolver:  Solving for Uy, Initial residual = 0.0105868, Final residual = 0.000807387, No Iterations 5
GAMG:  Solving for p, Initial residual = 0.0200426, Final residual = 0.00156295, No Iterations 1
time step continuity errors : sum local = 0.0643132, global = 0.0100952, cumulative = -0.285781
smoothSolver:  Solving for epsilon, Initial residual = 0.00573335, Final residual = 0.000426446, No Iterations 2
smoothSolver:  Solving for k, Initial residual = 0.0158549, Final residual = 0.0012653, No Iterations 3
ExecutionTime = 0.95 s  ClockTime = 1 s

Time = 29

smoothSolver:  Solving for Ux, Initial residual = 0.00860493, Final residual = 0.000675372, No Iterations 6
smoothSolver:  Solving for Uy, Initial residual = 0.01005, Final residual = 0.000758873, No Iterations 5
GAMG:  Solving for p, Initial residual = 0.0293875, Final residual = 0.00292248, No Iterations 1
time step continuity errors : sum local = 0.117858, global = -0.012523, cumulative = -0.298304
smoothSolver:  Solving for epsilon, Initial residual = 0.003414, Final residual = 0.000201209, No Iterations 3
smoothSolver:  Solving for k, Initial residual = 0.0154588, Final residual = 0.00122642, No Iterations 3
ExecutionTime = 0.97 s  ClockTime = 1 s

Time = 30

smoothSolver:  Solving for Ux, Initial residual = 0.00856939, Final residual = 0.000667043, No Iterations 6
smoothSolver:  Solving for Uy, Initial residual = 0.00937544, Final residual = 0.000733194, No Iterations 5
GAMG:  Solving for p, Initial residual = 0.0237642, Final residual = 0.00230905, No Iterations 1
time step continuity errors : sum local = 0.089718, global = -0.000914328, cumulative = -0.299219
smoothSolver:  Solving for epsilon, Initial residual = 0.0033065, Final residual = 0.000216074, No Iterations 3
smoothSolver:  Solving for k, Initial residual = 0.0150893, Final residual = 0.00118999, No Iterations 3
ExecutionTime = 1.01 s  ClockTime = 1 s

Time = 31

smoothSolver:  Solving for Ux, Initial residual = 0.00849187, Final residual = 0.000665512, No Iterations 6
smoothSolver:  Solving for Uy, Initial residual = 0.00898471, Final residual = 0.00068743, No Iterations 5
GAMG:  Solving for p, Initial residual = 0.0276376, Final residual = 0.00120138, No Iterations 2
time step continuity errors : sum local = 0.0462498, global = 0.0009623, cumulative = -0.298256
smoothSolver:  Solving for epsilon, Initial residual = 0.00348492, Final residual = 0.000230183, No Iterations 3
smoothSolver:  Solving for k, Initial residual = 0.0147531, Final residual = 0.00115458, No Iterations 3
ExecutionTime = 1.03 s  ClockTime = 1 s

Time = 32

smoothSolver:  Solving for Ux, Initial residual = 0.008365, Final residual = 0.000645838, No Iterations 6
smoothSolver:  Solving for Uy, Initial residual = 0.00834952, Final residual = 0.000661109, No Iterations 5
GAMG:  Solving for p, Initial residual = 0.0231661, Final residual = 0.00145167, No Iterations 1
time step continuity errors : sum local = 0.0548266, global = -0.000725477, cumulative = -0.298982
smoothSolver:  Solving for epsilon, Initial residual = 0.00358672, Final residual = 0.00024308, No Iterations 3
smoothSolver:  Solving for k, Initial residual = 0.0144157, Final residual = 0.00112128, No Iterations 3
ExecutionTime = 1.06 s  ClockTime = 1 s

Time = 33

smoothSolver:  Solving for Ux, Initial residual = 0.0081776, Final residual = 0.000635165, No Iterations 6
smoothSolver:  Solving for Uy, Initial residual = 0.00804291, Final residual = 0.000636643, No Iterations 5
GAMG:  Solving for p, Initial residual = 0.0232615, Final residual = 0.000917766, No Iterations 2
time step continuity errors : sum local = 0.0342106, global = 0.000169035, cumulative = -0.298813
smoothSolver:  Solving for epsilon, Initial residual = 0.00375175, Final residual = 0.00025526, No Iterations 3
smoothSolver:  Solving for k, Initial residual = 0.0141034, Final residual = 0.00108855, No Iterations 3
ExecutionTime = 1.09 s  ClockTime = 1 s

Time = 34

smoothSolver:  Solving for Ux, Initial residual = 0.0080473, Final residual = 0.000620805, No Iterations 6
smoothSolver:  Solving for Uy, Initial residual = 0.00739404, Final residual = 0.000594775, No Iterations 5
GAMG:  Solving for p, Initial residual = 0.021757, Final residual = 0.0018599, No Iterations 1
time step continuity errors : sum local = 0.0686182, global = 0.0100818, cumulative = -0.288731
smoothSolver:  Solving for epsilon, Initial residual = 0.00391307, Final residual = 0.000266096, No Iterations 3
smoothSolver:  Solving for k, Initial residual = 0.0137947, Final residual = 0.00105854, No Iterations 3
ExecutionTime = 1.11 s  ClockTime = 1 s

Time = 35

smoothSolver:  Solving for Ux, Initial residual = 0.00788002, Final residual = 0.000608968, No Iterations 6
smoothSolver:  Solving for Uy, Initial residual = 0.00717491, Final residual = 0.000578939, No Iterations 5
GAMG:  Solving for p, Initial residual = 0.0237706, Final residual = 0.000875207, No Iterations 2
time step continuity errors : sum local = 0.0318924, global = 0.00184354, cumulative = -0.286888
smoothSolver:  Solving for epsilon, Initial residual = 0.00405458, Final residual = 0.000275586, No Iterations 3
smoothSolver:  Solving for k, Initial residual = 0.0135043, Final residual = 0.00103018, No Iterations 3
ExecutionTime = 1.14 s  ClockTime = 1 s

Time = 36

smoothSolver:  Solving for Ux, Initial residual = 0.00774629, Final residual = 0.000591785, No Iterations 6
smoothSolver:  Solving for Uy, Initial residual = 0.00683775, Final residual = 0.000569636, No Iterations 5
GAMG:  Solving for p, Initial residual = 0.0225007, Final residual = 0.0021411, No Iterations 1
time step continuity errors : sum local = 0.0755197, global = -0.00251596, cumulative = -0.289403
smoothSolver:  Solving for epsilon, Initial residual = 0.00416926, Final residual = 0.000283515, No Iterations 3
smoothSolver:  Solving for k, Initial residual = 0.0132156, Final residual = 0.0010031, No Iterations 3
ExecutionTime = 1.16 s  ClockTime = 1 s

Time = 37

smoothSolver:  Solving for Ux, Initial residual = 0.00753284, Final residual = 0.000576298, No Iterations 6
smoothSolver:  Solving for Uy, Initial residual = 0.00662267, Final residual = 0.000539437, No Iterations 5
GAMG:  Solving for p, Initial residual = 0.0250109, Final residual = 0.000614716, No Iterations 2
time step continuity errors : sum local = 0.0214636, global = 0.000322634, cumulative = -0.289081
smoothSolver:  Solving for epsilon, Initial residual = 0.00426509, Final residual = 0.000290099, No Iterations 3
smoothSolver:  Solving for k, Initial residual = 0.0129384, Final residual = 0.000975012, No Iterations 3
ExecutionTime = 1.19 s  ClockTime = 1 s

Time = 38

smoothSolver:  Solving for Ux, Initial residual = 0.00730218, Final residual = 0.000553512, No Iterations 6
smoothSolver:  Solving for Uy, Initial residual = 0.0063148, Final residual = 0.000527587, No Iterations 5
GAMG:  Solving for p, Initial residual = 0.0226459, Final residual = 0.00138143, No Iterations 1
time step continuity errors : sum local = 0.0480574, global = 0.0070071, cumulative = -0.282074
smoothSolver:  Solving for epsilon, Initial residual = 0.00433518, Final residual = 0.000294824, No Iterations 3
smoothSolver:  Solving for k, Initial residual = 0.0126602, Final residual = 0.000948902, No Iterations 3
ExecutionTime = 1.21 s  ClockTime = 1 s

Time = 39

smoothSolver:  Solving for Ux, Initial residual = 0.00713211, Final residual = 0.000543138, No Iterations 6
smoothSolver:  Solving for Uy, Initial residual = 0.00623907, Final residual = 0.000512266, No Iterations 5
GAMG:  Solving for p, Initial residual = 0.0277689, Final residual = 0.000931668, No Iterations 2
time step continuity errors : sum local = 0.0320293, global = 0.00242595, cumulative = -0.279648
smoothSolver:  Solving for epsilon, Initial residual = 0.0043876, Final residual = 0.000298289, No Iterations 3
smoothSolver:  Solving for k, Initial residual = 0.0124091, Final residual = 0.000924717, No Iterations 3
ExecutionTime = 1.24 s  ClockTime = 1 s

Time = 40

smoothSolver:  Solving for Ux, Initial residual = 0.00700925, Final residual = 0.000526851, No Iterations 6
smoothSolver:  Solving for Uy, Initial residual = 0.00580258, Final residual = 0.000489344, No Iterations 5
GAMG:  Solving for p, Initial residual = 0.0250045, Final residual = 0.00218642, No Iterations 1
time step continuity errors : sum local = 0.0735932, global = 0.00146949, cumulative = -0.278178
smoothSolver:  Solving for epsilon, Initial residual = 0.00441493, Final residual = 0.000300203, No Iterations 3
smoothSolver:  Solving for k, Initial residual = 0.0121639, Final residual = 0.000903312, No Iterations 3
ExecutionTime = 1.27 s  ClockTime = 1 s

Time = 41

smoothSolver:  Solving for Ux, Initial residual = 0.00654328, Final residual = 0.000491566, No Iterations 6
smoothSolver:  Solving for Uy, Initial residual = 0.00553074, Final residual = 0.000469085, No Iterations 5
GAMG:  Solving for p, Initial residual = 0.0192769, Final residual = 0.000708829, No Iterations 2
time step continuity errors : sum local = 0.0235825, global = 0.000847604, cumulative = -0.277331
smoothSolver:  Solving for epsilon, Initial residual = 0.00441503, Final residual = 0.000300067, No Iterations 3
smoothSolver:  Solving for k, Initial residual = 0.0119291, Final residual = 0.000879416, No Iterations 3
ExecutionTime = 1.3 s  ClockTime = 1 s

Time = 42

smoothSolver:  Solving for Ux, Initial residual = 0.00659127, Final residual = 0.000489414, No Iterations 6
smoothSolver:  Solving for Uy, Initial residual = 0.00546764, Final residual = 0.000474092, No Iterations 5
GAMG:  Solving for p, Initial residual = 0.0214904, Final residual = 0.00130584, No Iterations 1
time step continuity errors : sum local = 0.0430783, global = 0.0069442, cumulative = -0.270386
smoothSolver:  Solving for epsilon, Initial residual = 0.00453558, Final residual = 0.000298582, No Iterations 3
smoothSolver:  Solving for k, Initial residual = 0.0116927, Final residual = 0.000858879, No Iterations 3
ExecutionTime = 1.33 s  ClockTime = 1 s

Time = 43

smoothSolver:  Solving for Ux, Initial residual = 0.00593093, Final residual = 0.000440778, No Iterations 6
smoothSolver:  Solving for Uy, Initial residual = 0.00514376, Final residual = 0.000440676, No Iterations 5
GAMG:  Solving for p, Initial residual = 0.0263644, Final residual = 0.00104967, No Iterations 2
time step continuity errors : sum local = 0.034234, global = 0.00310157, cumulative = -0.267285
smoothSolver:  Solving for epsilon, Initial residual = 0.00438162, Final residual = 0.000292818, No Iterations 3
smoothSolver:  Solving for k, Initial residual = 0.0114734, Final residual = 0.000836868, No Iterations 3
ExecutionTime = 1.36 s  ClockTime = 1 s

Time = 44

smoothSolver:  Solving for Ux, Initial residual = 0.00603972, Final residual = 0.000444352, No Iterations 6
smoothSolver:  Solving for Uy, Initial residual = 0.00495492, Final residual = 0.000436037, No Iterations 5
GAMG:  Solving for p, Initial residual = 0.023034, Final residual = 0.00106838, No Iterations 2
time step continuity errors : sum local = 0.0340811, global = 0.000144749, cumulative = -0.26714
smoothSolver:  Solving for epsilon, Initial residual = 0.124062, Final residual = 0.0034283, No Iterations 1
smoothSolver:  Solving for k, Initial residual = 0.0127105, Final residual = 0.000845731, No Iterations 3
ExecutionTime = 1.39 s  ClockTime = 1 s

Time = 45

smoothSolver:  Solving for Ux, Initial residual = 0.00568383, Final residual = 0.000416958, No Iterations 6
smoothSolver:  Solving for Uy, Initial residual = 0.00482961, Final residual = 0.000431106, No Iterations 5
GAMG:  Solving for p, Initial residual = 0.0196421, Final residual = 0.00100481, No Iterations 2
time step continuity errors : sum local = 0.0316553, global = -1.51967e-05, cumulative = -0.267155
smoothSolver:  Solving for epsilon, Initial residual = 0.0145726, Final residual = 0.000645254, No Iterations 2
smoothSolver:  Solving for k, Initial residual = 0.0112248, Final residual = 0.000813447, No Iterations 3
ExecutionTime = 1.43 s  ClockTime = 1 s

Time = 46

smoothSolver:  Solving for Ux, Initial residual = 0.00557146, Final residual = 0.000407298, No Iterations 6
smoothSolver:  Solving for Uy, Initial residual = 0.00449026, Final residual = 0.000407535, No Iterations 5
GAMG:  Solving for p, Initial residual = 0.0200235, Final residual = 0.00106974, No Iterations 2
time step continuity errors : sum local = 0.0334652, global = -0.000163084, cumulative = -0.267318
smoothSolver:  Solving for epsilon, Initial residual = 0.00624464, Final residual = 0.00028741, No Iterations 3
smoothSolver:  Solving for k, Initial residual = 0.011028, Final residual = 0.000796578, No Iterations 3
ExecutionTime = 1.45 s  ClockTime = 1 s

Time = 47

smoothSolver:  Solving for Ux, Initial residual = 0.00532903, Final residual = 0.00038654, No Iterations 6
smoothSolver:  Solving for Uy, Initial residual = 0.00463753, Final residual = 0.000402566, No Iterations 5
GAMG:  Solving for p, Initial residual = 0.0283548, Final residual = 0.00248444, No Iterations 1
time step continuity errors : sum local = 0.0764389, global = 0.00849217, cumulative = -0.258826
smoothSolver:  Solving for epsilon, Initial residual = 0.00469166, Final residual = 0.000281091, No Iterations 3
smoothSolver:  Solving for k, Initial residual = 0.0108687, Final residual = 0.000783887, No Iterations 3
ExecutionTime = 1.48 s  ClockTime = 1 s

Time = 48

smoothSolver:  Solving for Ux, Initial residual = 0.00531416, Final residual = 0.000383335, No Iterations 6
smoothSolver:  Solving for Uy, Initial residual = 0.00426219, Final residual = 0.000390953, No Iterations 5
GAMG:  Solving for p, Initial residual = 0.0240871, Final residual = 0.00178177, No Iterations 2
time step continuity errors : sum local = 0.0547318, global = 0.00943037, cumulative = -0.249396
smoothSolver:  Solving for epsilon, Initial residual = 0.00784006, Final residual = 0.000632309, No Iterations 2
smoothSolver:  Solving for k, Initial residual = 0.0107977, Final residual = 0.000773736, No Iterations 3
ExecutionTime = 1.5 s  ClockTime = 1 s

Time = 49

smoothSolver:  Solving for Ux, Initial residual = 0.00495755, Final residual = 0.000354237, No Iterations 6
smoothSolver:  Solving for Uy, Initial residual = 0.00425053, Final residual = 0.000393213, No Iterations 5
GAMG:  Solving for p, Initial residual = 0.0231417, Final residual = 0.000786211, No Iterations 2
time step continuity errors : sum local = 0.0236359, global = 0.00223178, cumulative = -0.247164
smoothSolver:  Solving for epsilon, Initial residual = 0.0357978, Final residual = 0.00140266, No Iterations 1
smoothSolver:  Solving for k, Initial residual = 0.0107014, Final residual = 0.000765617, No Iterations 3
ExecutionTime = 1.52 s  ClockTime = 1 s

Time = 50

smoothSolver:  Solving for Ux, Initial residual = 0.00493511, Final residual = 0.000351301, No Iterations 6
smoothSolver:  Solving for Uy, Initial residual = 0.00395958, Final residual = 0.000373275, No Iterations 5
GAMG:  Solving for p, Initial residual = 0.0203127, Final residual = 0.00093721, No Iterations 2
time step continuity errors : sum local = 0.027709, global = -0.000746814, cumulative = -0.247911
smoothSolver:  Solving for epsilon, Initial residual = 0.0104052, Final residual = 0.000615195, No Iterations 2
smoothSolver:  Solving for k, Initial residual = 0.0106586, Final residual = 0.000762003, No Iterations 3
ExecutionTime = 1.54 s  ClockTime = 1 s

Time = 51

smoothSolver:  Solving for Ux, Initial residual = 0.00456894, Final residual = 0.000322202, No Iterations 6
smoothSolver:  Solving for Uy, Initial residual = 0.00380792, Final residual = 0.000364112, No Iterations 5
GAMG:  Solving for p, Initial residual = 0.017385, Final residual = 0.00106862, No Iterations 2
time step continuity errors : sum local = 0.0313662, global = -0.000243963, cumulative = -0.248155
smoothSolver:  Solving for epsilon, Initial residual = 0.00508793, Final residual = 0.000254566, No Iterations 3
smoothSolver:  Solving for k, Initial residual = 0.0106167, Final residual = 0.000758811, No Iterations 3
ExecutionTime = 1.57 s  ClockTime = 1 s

Time = 52

smoothSolver:  Solving for Ux, Initial residual = 0.00462173, Final residual = 0.000324113, No Iterations 6
smoothSolver:  Solving for Uy, Initial residual = 0.00371336, Final residual = 0.000360713, No Iterations 5
GAMG:  Solving for p, Initial residual = 0.0162067, Final residual = 0.00110624, No Iterations 2
time step continuity errors : sum local = 0.0322487, global = 0.000530135, cumulative = -0.247625
smoothSolver:  Solving for epsilon, Initial residual = 0.0185821, Final residual = 0.00156532, No Iterations 1
smoothSolver:  Solving for k, Initial residual = 0.0107944, Final residual = 0.000763093, No Iterations 3
ExecutionTime = 1.61 s  ClockTime = 1 s

Time = 53

smoothSolver:  Solving for Ux, Initial residual = 0.00432865, Final residual = 0.000301394, No Iterations 6
smoothSolver:  Solving for Uy, Initial residual = 0.00374693, Final residual = 0.000354912, No Iterations 5
GAMG:  Solving for p, Initial residual = 0.0258716, Final residual = 0.00252672, No Iterations 1
time step continuity errors : sum local = 0.0725912, global = 0.0072782, cumulative = -0.240347
smoothSolver:  Solving for epsilon, Initial residual = 0.0067791, Final residual = 0.000544982, No Iterations 2
smoothSolver:  Solving for k, Initial residual = 0.0106805, Final residual = 0.000758642, No Iterations 3
ExecutionTime = 1.63 s  ClockTime = 1 s

Time = 54

smoothSolver:  Solving for Ux, Initial residual = 0.00425416, Final residual = 0.000293883, No Iterations 6
smoothSolver:  Solving for Uy, Initial residual = 0.00355454, Final residual = 0.000345139, No Iterations 5
GAMG:  Solving for p, Initial residual = 0.0212495, Final residual = 0.00163014, No Iterations 2
time step continuity errors : sum local = 0.0467343, global = 0.00639166, cumulative = -0.233955
smoothSolver:  Solving for epsilon, Initial residual = 0.00394554, Final residual = 0.000225892, No Iterations 3
smoothSolver:  Solving for k, Initial residual = 0.0107417, Final residual = 0.000765693, No Iterations 3
ExecutionTime = 1.65 s  ClockTime = 1 s

Time = 55

smoothSolver:  Solving for Ux, Initial residual = 0.00408302, Final residual = 0.000279043, No Iterations 6
smoothSolver:  Solving for Uy, Initial residual = 0.00372883, Final residual = 0.000349586, No Iterations 5
GAMG:  Solving for p, Initial residual = 0.0315538, Final residual = 0.0025823, No Iterations 1
time step continuity errors : sum local = 0.0724351, global = -0.00588053, cumulative = -0.239835
smoothSolver:  Solving for epsilon, Initial residual = 0.00330085, Final residual = 0.000212212, No Iterations 3
smoothSolver:  Solving for k, Initial residual = 0.0108265, Final residual = 0.000769678, No Iterations 3
ExecutionTime = 1.68 s  ClockTime = 1 s

Time = 56

smoothSolver:  Solving for Ux, Initial residual = 0.00392141, Final residual = 0.000265019, No Iterations 6
smoothSolver:  Solving for Uy, Initial residual = 0.00347815, Final residual = 0.000333031, No Iterations 5
GAMG:  Solving for p, Initial residual = 0.0273354, Final residual = 0.00206359, No Iterations 1
time step continuity errors : sum local = 0.0571471, global = 8.09646e-05, cumulative = -0.239754
smoothSolver:  Solving for epsilon, Initial residual = 0.00291947, Final residual = 0.000198405, No Iterations 3
smoothSolver:  Solving for k, Initial residual = 0.0109838, Final residual = 0.000782821, No Iterations 3
ExecutionTime = 1.7 s  ClockTime = 1 s

Time = 57

smoothSolver:  Solving for Ux, Initial residual = 0.00370444, Final residual = 0.000249231, No Iterations 6
smoothSolver:  Solving for Uy, Initial residual = 0.00339528, Final residual = 0.000331617, No Iterations 5
GAMG:  Solving for p, Initial residual = 0.0158913, Final residual = 0.00132563, No Iterations 2
time step continuity errors : sum local = 0.0365958, global = 0.000828777, cumulative = -0.238926
smoothSolver:  Solving for epsilon, Initial residual = 0.00273647, Final residual = 0.000184061, No Iterations 3
smoothSolver:  Solving for k, Initial residual = 0.0112137, Final residual = 0.000803559, No Iterations 3
ExecutionTime = 1.73 s  ClockTime = 1 s

Time = 58

smoothSolver:  Solving for Ux, Initial residual = 0.0037244, Final residual = 0.000245698, No Iterations 6
smoothSolver:  Solving for Uy, Initial residual = 0.00348201, Final residual = 0.000342066, No Iterations 5
GAMG:  Solving for p, Initial residual = 0.0201044, Final residual = 0.00139208, No Iterations 1
time step continuity errors : sum local = 0.0381072, global = -0.000723849, cumulative = -0.23965
smoothSolver:  Solving for epsilon, Initial residual = 0.119038, Final residual = 0.0029496, No Iterations 1
smoothSolver:  Solving for k, Initial residual = 0.0132513, Final residual = 0.000847613, No Iterations 3
ExecutionTime = 1.76 s  ClockTime = 1 s

Time = 59

smoothSolver:  Solving for Ux, Initial residual = 0.00356026, Final residual = 0.000235467, No Iterations 6
smoothSolver:  Solving for Uy, Initial residual = 0.00347186, Final residual = 0.000334794, No Iterations 5
GAMG:  Solving for p, Initial residual = 0.0216259, Final residual = 0.00102911, No Iterations 2
time step continuity errors : sum local = 0.0278837, global = 0.000354576, cumulative = -0.239295
smoothSolver:  Solving for epsilon, Initial residual = 0.0116799, Final residual = 0.000876851, No Iterations 1
smoothSolver:  Solving for k, Initial residual = 0.0118387, Final residual = 0.000845705, No Iterations 3
ExecutionTime = 1.78 s  ClockTime = 1 s

Time = 60

smoothSolver:  Solving for Ux, Initial residual = 0.00341062, Final residual = 0.000340704, No Iterations 5
smoothSolver:  Solving for Uy, Initial residual = 0.00334385, Final residual = 0.000327862, No Iterations 5
GAMG:  Solving for p, Initial residual = 0.0192062, Final residual = 0.00172081, No Iterations 1
time step continuity errors : sum local = 0.0463943, global = 0.00644769, cumulative = -0.232847
smoothSolver:  Solving for epsilon, Initial residual = 0.00401545, Final residual = 0.000365519, No Iterations 2
smoothSolver:  Solving for k, Initial residual = 0.0121473, Final residual = 0.000869291, No Iterations 3
ExecutionTime = 1.81 s  ClockTime = 1 s

Time = 61

smoothSolver:  Solving for Ux, Initial residual = 0.0032789, Final residual = 0.000326815, No Iterations 5
smoothSolver:  Solving for Uy, Initial residual = 0.00324077, Final residual = 0.00031797, No Iterations 5
GAMG:  Solving for p, Initial residual = 0.0145993, Final residual = 0.0011929, No Iterations 2
time step continuity errors : sum local = 0.0319929, global = 0.00161326, cumulative = -0.231234
smoothSolver:  Solving for epsilon, Initial residual = 0.00246769, Final residual = 0.000143957, No Iterations 3
smoothSolver:  Solving for k, Initial residual = 0.0124968, Final residual = 0.000894945, No Iterations 3
ExecutionTime = 1.83 s  ClockTime = 2 s

Time = 62

smoothSolver:  Solving for Ux, Initial residual = 0.00307727, Final residual = 0.000301044, No Iterations 5
smoothSolver:  Solving for Uy, Initial residual = 0.00309721, Final residual = 0.000302146, No Iterations 5
GAMG:  Solving for p, Initial residual = 0.0152292, Final residual = 0.000727713, No Iterations 2
time step continuity errors : sum local = 0.01918, global = -0.000837536, cumulative = -0.232072
smoothSolver:  Solving for epsilon, Initial residual = 0.00198718, Final residual = 0.000128809, No Iterations 3
smoothSolver:  Solving for k, Initial residual = 0.0129161, Final residual = 0.000926431, No Iterations 3
ExecutionTime = 1.86 s  ClockTime = 2 s

Time = 63

smoothSolver:  Solving for Ux, Initial residual = 0.00310461, Final residual = 0.000302385, No Iterations 5
smoothSolver:  Solving for Uy, Initial residual = 0.00353342, Final residual = 0.000336384, No Iterations 5
GAMG:  Solving for p, Initial residual = 0.0226349, Final residual = 0.00130646, No Iterations 1
time step continuity errors : sum local = 0.0341667, global = 0.00424459, cumulative = -0.227827
smoothSolver:  Solving for epsilon, Initial residual = 0.0132246, Final residual = 0.000923383, No Iterations 1
smoothSolver:  Solving for k, Initial residual = 0.0138281, Final residual = 0.000980694, No Iterations 3
ExecutionTime = 1.89 s  ClockTime = 2 s

Time = 64

smoothSolver:  Solving for Ux, Initial residual = 0.00293749, Final residual = 0.000284777, No Iterations 5
smoothSolver:  Solving for Uy, Initial residual = 0.0130373, Final residual = 0.000867865, No Iterations 3
GAMG:  Solving for p, Initial residual = 0.0174887, Final residual = 0.00110014, No Iterations 2
time step continuity errors : sum local = 0.0288024, global = 0.00238334, cumulative = -0.225444
smoothSolver:  Solving for epsilon, Initial residual = 0.000799678, Final residual = 4.64344e-05, No Iterations 1
smoothSolver:  Solving for k, Initial residual = 0.0244468, Final residual = 0.00109548, No Iterations 3
ExecutionTime = 1.91 s  ClockTime = 2 s

Time = 65

smoothSolver:  Solving for Ux, Initial residual = 0.00284432, Final residual = 0.000272671, No Iterations 5
smoothSolver:  Solving for Uy, Initial residual = 0.00368039, Final residual = 0.00033894, No Iterations 5
GAMG:  Solving for p, Initial residual = 0.0174543, Final residual = 0.000792194, No Iterations 2
time step continuity errors : sum local = 0.0204664, global = 0.000477409, cumulative = -0.224966
smoothSolver:  Solving for epsilon, Initial residual = 0.00113135, Final residual = 4.93661e-05, No Iterations 3
smoothSolver:  Solving for k, Initial residual = 0.0145447, Final residual = 0.00101948, No Iterations 3
ExecutionTime = 1.94 s  ClockTime = 2 s

Time = 66

smoothSolver:  Solving for Ux, Initial residual = 0.00271292, Final residual = 0.000257653, No Iterations 5
smoothSolver:  Solving for Uy, Initial residual = 0.00327258, Final residual = 0.000321009, No Iterations 5
GAMG:  Solving for p, Initial residual = 0.0166177, Final residual = 0.00151944, No Iterations 1
time step continuity errors : sum local = 0.0391385, global = 0.00476603, cumulative = -0.2202
smoothSolver:  Solving for epsilon, Initial residual = 0.00114555, Final residual = 6.46014e-05, No Iterations 3
smoothSolver:  Solving for k, Initial residual = 0.0146755, Final residual = 0.00104075, No Iterations 3
ExecutionTime = 1.97 s  ClockTime = 2 s

Time = 67

smoothSolver:  Solving for Ux, Initial residual = 0.0026877, Final residual = 0.000254167, No Iterations 5
smoothSolver:  Solving for Uy, Initial residual = 0.00326581, Final residual = 0.000314877, No Iterations 5
GAMG:  Solving for p, Initial residual = 0.0196586, Final residual = 0.00103531, No Iterations 2
time step continuity errors : sum local = 0.0264863, global = 0.0012224, cumulative = -0.218978
smoothSolver:  Solving for epsilon, Initial residual = 0.00118599, Final residual = 6.70716e-05, No Iterations 3
smoothSolver:  Solving for k, Initial residual = 0.0150232, Final residual = 0.00106819, No Iterations 3
ExecutionTime = 1.99 s  ClockTime = 2 s

Time = 68

smoothSolver:  Solving for Ux, Initial residual = 0.00261787, Final residual = 0.000244439, No Iterations 5
smoothSolver:  Solving for Uy, Initial residual = 0.00310395, Final residual = 0.000301616, No Iterations 5
GAMG:  Solving for p, Initial residual = 0.0172108, Final residual = 0.00154164, No Iterations 1
time step continuity errors : sum local = 0.0389907, global = 0.00142641, cumulative = -0.217551
smoothSolver:  Solving for epsilon, Initial residual = 0.00121457, Final residual = 6.51687e-05, No Iterations 3
smoothSolver:  Solving for k, Initial residual = 0.0153935, Final residual = 0.00109307, No Iterations 3
ExecutionTime = 2.02 s  ClockTime = 2 s

Time = 69

smoothSolver:  Solving for Ux, Initial residual = 0.00256141, Final residual = 0.000237859, No Iterations 5
smoothSolver:  Solving for Uy, Initial residual = 0.00332068, Final residual = 0.000320331, No Iterations 5
GAMG:  Solving for p, Initial residual = 0.0209961, Final residual = 0.000937737, No Iterations 2
time step continuity errors : sum local = 0.0235535, global = 0.000676664, cumulative = -0.216875
smoothSolver:  Solving for epsilon, Initial residual = 0.00117753, Final residual = 6.33075e-05, No Iterations 3
smoothSolver:  Solving for k, Initial residual = 0.0157621, Final residual = 0.00111541, No Iterations 3
ExecutionTime = 2.05 s  ClockTime = 2 s

Time = 70

smoothSolver:  Solving for Ux, Initial residual = 0.00243331, Final residual = 0.000223155, No Iterations 5
smoothSolver:  Solving for Uy, Initial residual = 0.00316268, Final residual = 0.000307299, No Iterations 5
GAMG:  Solving for p, Initial residual = 0.0193998, Final residual = 0.00102869, No Iterations 1
time step continuity errors : sum local = 0.0257771, global = 0.00397009, cumulative = -0.212905
smoothSolver:  Solving for epsilon, Initial residual = 0.00118122, Final residual = 6.20815e-05, No Iterations 3
smoothSolver:  Solving for k, Initial residual = 0.0161154, Final residual = 0.00113682, No Iterations 3
ExecutionTime = 2.07 s  ClockTime = 2 s

Time = 71

smoothSolver:  Solving for Ux, Initial residual = 0.00232631, Final residual = 0.000212387, No Iterations 5
smoothSolver:  Solving for Uy, Initial residual = 0.00327406, Final residual = 0.000309775, No Iterations 5
GAMG:  Solving for p, Initial residual = 0.0244494, Final residual = 0.000920592, No Iterations 2
time step continuity errors : sum local = 0.0228521, global = 0.000950691, cumulative = -0.211954
smoothSolver:  Solving for epsilon, Initial residual = 0.00125176, Final residual = 6.21233e-05, No Iterations 3
smoothSolver:  Solving for k, Initial residual = 0.0164703, Final residual = 0.00116482, No Iterations 3
ExecutionTime = 2.1 s  ClockTime = 2 s

Time = 72

smoothSolver:  Solving for Ux, Initial residual = 0.00233301, Final residual = 0.000210879, No Iterations 5
smoothSolver:  Solving for Uy, Initial residual = 0.00320577, Final residual = 0.000309952, No Iterations 5
GAMG:  Solving for p, Initial residual = 0.0223795, Final residual = 0.00109211, No Iterations 1
time step continuity errors : sum local = 0.0268101, global = 0.000809479, cumulative = -0.211144
smoothSolver:  Solving for epsilon, Initial residual = 0.00145305, Final residual = 6.34239e-05, No Iterations 3
smoothSolver:  Solving for k, Initial residual = 0.0167786, Final residual = 0.00117691, No Iterations 3
ExecutionTime = 2.12 s  ClockTime = 2 s

Time = 73

smoothSolver:  Solving for Ux, Initial residual = 0.0022623, Final residual = 0.00020367, No Iterations 5
smoothSolver:  Solving for Uy, Initial residual = 0.0034211, Final residual = 0.000321985, No Iterations 5
GAMG:  Solving for p, Initial residual = 0.0287242, Final residual = 0.002404, No Iterations 1
time step continuity errors : sum local = 0.0584348, global = 0.00378385, cumulative = -0.207361
smoothSolver:  Solving for epsilon, Initial residual = 0.00167058, Final residual = 0.000162597, No Iterations 2
smoothSolver:  Solving for k, Initial residual = 0.0170825, Final residual = 0.00119719, No Iterations 3
ExecutionTime = 2.15 s  ClockTime = 2 s

Time = 74

smoothSolver:  Solving for Ux, Initial residual = 0.00223247, Final residual = 0.000198908, No Iterations 5
smoothSolver:  Solving for Uy, Initial residual = 0.00329521, Final residual = 0.000318324, No Iterations 5
GAMG:  Solving for p, Initial residual = 0.0258445, Final residual = 0.00189094, No Iterations 1
time step continuity errors : sum local = 0.0461352, global = 0.00475867, cumulative = -0.202602
smoothSolver:  Solving for epsilon, Initial residual = 0.00149568, Final residual = 7.01796e-05, No Iterations 3
smoothSolver:  Solving for k, Initial residual = 0.0173486, Final residual = 0.00121064, No Iterations 3
ExecutionTime = 2.17 s  ClockTime = 2 s

Time = 75

smoothSolver:  Solving for Ux, Initial residual = 0.0021829, Final residual = 0.000194008, No Iterations 5
smoothSolver:  Solving for Uy, Initial residual = 0.00358023, Final residual = 0.000324606, No Iterations 5
GAMG:  Solving for p, Initial residual = 0.0286401, Final residual = 0.00241943, No Iterations 1
time step continuity errors : sum local = 0.0583125, global = 0.00182466, cumulative = -0.200777
smoothSolver:  Solving for epsilon, Initial residual = 0.0015582, Final residual = 7.36955e-05, No Iterations 3
smoothSolver:  Solving for k, Initial residual = 0.0192747, Final residual = 0.0013197, No Iterations 3
ExecutionTime = 2.2 s  ClockTime = 2 s

Time = 76

smoothSolver:  Solving for Ux, Initial residual = 0.00216399, Final residual = 0.000189964, No Iterations 5
smoothSolver:  Solving for Uy, Initial residual = 0.0274226, Final residual = 0.00164376, No Iterations 2
GAMG:  Solving for p, Initial residual = 0.0272989, Final residual = 0.00145432, No Iterations 1
time step continuity errors : sum local = 0.0346604, global = 0.0028855, cumulative = -0.197892
smoothSolver:  Solving for epsilon, Initial residual = 1.63723e-05, Final residual = 7.63155e-07, No Iterations 3
smoothSolver:  Solving for k, Initial residual = 0.090863, Final residual = 0.00445997, No Iterations 2
ExecutionTime = 2.22 s  ClockTime = 2 s

Time = 77

smoothSolver:  Solving for Ux, Initial residual = 0.00197542, Final residual = 0.000172552, No Iterations 5
smoothSolver:  Solving for Uy, Initial residual = 0.00428335, Final residual = 0.000397652, No Iterations 5
GAMG:  Solving for p, Initial residual = 0.0306361, Final residual = 0.0020484, No Iterations 1
time step continuity errors : sum local = 0.0485145, global = 0.00025904, cumulative = -0.197633
smoothSolver:  Solving for epsilon, Initial residual = 0.000276493, Final residual = 1.20894e-05, No Iterations 3
smoothSolver:  Solving for k, Initial residual = 0.0199112, Final residual = 0.0012768, No Iterations 3
ExecutionTime = 2.25 s  ClockTime = 2 s

Time = 78

smoothSolver:  Solving for Ux, Initial residual = 0.00206885, Final residual = 0.000180462, No Iterations 5
smoothSolver:  Solving for Uy, Initial residual = 0.00371378, Final residual = 0.000354946, No Iterations 5
GAMG:  Solving for p, Initial residual = 0.0295971, Final residual = 0.00176582, No Iterations 1
time step continuity errors : sum local = 0.0417921, global = 0.0018289, cumulative = -0.195804
smoothSolver:  Solving for epsilon, Initial residual = 0.0113255, Final residual = 0.000374437, No Iterations 1
smoothSolver:  Solving for k, Initial residual = 0.0193425, Final residual = 0.00128329, No Iterations 3
ExecutionTime = 2.27 s  ClockTime = 2 s

Time = 79

smoothSolver:  Solving for Ux, Initial residual = 0.00196337, Final residual = 0.00016969, No Iterations 5
smoothSolver:  Solving for Uy, Initial residual = 0.00491692, Final residual = 0.000334162, No Iterations 5
GAMG:  Solving for p, Initial residual = 0.0288356, Final residual = 0.00280815, No Iterations 1
time step continuity errors : sum local = 0.0658931, global = -0.000555154, cumulative = -0.196359
smoothSolver:  Solving for epsilon, Initial residual = 0.00210011, Final residual = 9.1675e-05, No Iterations 2
smoothSolver:  Solving for k, Initial residual = 0.0185799, Final residual = 0.00126685, No Iterations 3
ExecutionTime = 2.3 s  ClockTime = 2 s

Time = 80

smoothSolver:  Solving for Ux, Initial residual = 0.00186523, Final residual = 0.000158356, No Iterations 5
smoothSolver:  Solving for Uy, Initial residual = 0.00341412, Final residual = 0.000296498, No Iterations 5
GAMG:  Solving for p, Initial residual = 0.0283184, Final residual = 0.00139661, No Iterations 1
time step continuity errors : sum local = 0.0325121, global = 0.00046098, cumulative = -0.195898
smoothSolver:  Solving for epsilon, Initial residual = 0.165164, Final residual = 0.00394065, No Iterations 1
smoothSolver:  Solving for k, Initial residual = 0.0263941, Final residual = 0.00135621, No Iterations 3
ExecutionTime = 2.32 s  ClockTime = 2 s

Time = 81

smoothSolver:  Solving for Ux, Initial residual = 0.00192431, Final residual = 0.000164956, No Iterations 5
smoothSolver:  Solving for Uy, Initial residual = 0.00339862, Final residual = 0.0003111, No Iterations 5
GAMG:  Solving for p, Initial residual = 0.0298682, Final residual = 0.00123303, No Iterations 1
time step continuity errors : sum local = 0.0284791, global = 0.00249464, cumulative = -0.193403
smoothSolver:  Solving for epsilon, Initial residual = 0.224291, Final residual = 0.00019504, No Iterations 1
smoothSolver:  Solving for k, Initial residual = 0.0189362, Final residual = 0.00127389, No Iterations 3
ExecutionTime = 2.35 s  ClockTime = 2 s

Time = 82

smoothSolver:  Solving for Ux, Initial residual = 0.00187977, Final residual = 0.000160597, No Iterations 5
smoothSolver:  Solving for Uy, Initial residual = 0.00340191, Final residual = 0.000312109, No Iterations 5
GAMG:  Solving for p, Initial residual = 0.0272333, Final residual = 0.00129475, No Iterations 1
time step continuity errors : sum local = 0.0299484, global = 0.00371713, cumulative = -0.189686
smoothSolver:  Solving for epsilon, Initial residual = 0.0834761, Final residual = 0.000313043, No Iterations 1
smoothSolver:  Solving for k, Initial residual = 0.018772, Final residual = 0.00126465, No Iterations 3
ExecutionTime = 2.37 s  ClockTime = 2 s

Time = 83

smoothSolver:  Solving for Ux, Initial residual = 0.00179223, Final residual = 0.000151328, No Iterations 5
smoothSolver:  Solving for Uy, Initial residual = 0.00358583, Final residual = 0.000309844, No Iterations 5
GAMG:  Solving for p, Initial residual = 0.0182011, Final residual = 0.000796376, No Iterations 2
time step continuity errors : sum local = 0.0182989, global = 0.00123122, cumulative = -0.188455
smoothSolver:  Solving for epsilon, Initial residual = 0.0214885, Final residual = 0.000415301, No Iterations 1
smoothSolver:  Solving for k, Initial residual = 0.018793, Final residual = 0.00126771, No Iterations 3
ExecutionTime = 2.39 s  ClockTime = 2 s

Time = 84

smoothSolver:  Solving for Ux, Initial residual = 0.00178888, Final residual = 0.000150635, No Iterations 5
smoothSolver:  Solving for Uy, Initial residual = 0.00320869, Final residual = 0.000314968, No Iterations 5
GAMG:  Solving for p, Initial residual = 0.0215006, Final residual = 0.000830135, No Iterations 1
time step continuity errors : sum local = 0.0189178, global = 0.00145358, cumulative = -0.187001
smoothSolver:  Solving for epsilon, Initial residual = 0.0510552, Final residual = 0.000397778, No Iterations 1
smoothSolver:  Solving for k, Initial residual = 0.0204018, Final residual = 0.0012863, No Iterations 3
ExecutionTime = 2.42 s  ClockTime = 2 s

Time = 85

smoothSolver:  Solving for Ux, Initial residual = 0.00177962, Final residual = 0.000149791, No Iterations 5
smoothSolver:  Solving for Uy, Initial residual = 0.00326266, Final residual = 0.000318082, No Iterations 5
GAMG:  Solving for p, Initial residual = 0.0215132, Final residual = 0.00143173, No Iterations 1
time step continuity errors : sum local = 0.0324741, global = 0.00491727, cumulative = -0.182084
smoothSolver:  Solving for epsilon, Initial residual = 0.13261, Final residual = 0.000400725, No Iterations 1
smoothSolver:  Solving for k, Initial residual = 0.0186878, Final residual = 0.00125148, No Iterations 3
ExecutionTime = 2.45 s  ClockTime = 2 s

Time = 86

smoothSolver:  Solving for Ux, Initial residual = 0.00168323, Final residual = 0.000140478, No Iterations 5
smoothSolver:  Solving for Uy, Initial residual = 0.00356282, Final residual = 0.000306628, No Iterations 5
GAMG:  Solving for p, Initial residual = 0.0205332, Final residual = 0.00139184, No Iterations 1
time step continuity errors : sum local = 0.0315908, global = 0.00449521, cumulative = -0.177589
smoothSolver:  Solving for epsilon, Initial residual = 0.0304292, Final residual = 0.000517632, No Iterations 1
smoothSolver:  Solving for k, Initial residual = 0.0185854, Final residual = 0.0012393, No Iterations 3
ExecutionTime = 2.47 s  ClockTime = 2 s

Time = 87

smoothSolver:  Solving for Ux, Initial residual = 0.00173631, Final residual = 0.000145304, No Iterations 5
smoothSolver:  Solving for Uy, Initial residual = 0.00319589, Final residual = 0.000306612, No Iterations 5
GAMG:  Solving for p, Initial residual = 0.0237847, Final residual = 0.000841709, No Iterations 2
time step continuity errors : sum local = 0.0189091, global = -0.000567261, cumulative = -0.178156
smoothSolver:  Solving for epsilon, Initial residual = 0.0857873, Final residual = 0.00102322, No Iterations 1
smoothSolver:  Solving for k, Initial residual = 0.0208243, Final residual = 0.00126177, No Iterations 3
ExecutionTime = 2.48 s  ClockTime = 2 s

Time = 88

smoothSolver:  Solving for Ux, Initial residual = 0.00168627, Final residual = 0.000140643, No Iterations 5
smoothSolver:  Solving for Uy, Initial residual = 0.00310944, Final residual = 0.000300413, No Iterations 5
GAMG:  Solving for p, Initial residual = 0.0224513, Final residual = 0.000847088, No Iterations 1
time step continuity errors : sum local = 0.0188544, global = -0.000733569, cumulative = -0.17889
smoothSolver:  Solving for epsilon, Initial residual = 0.0562056, Final residual = 0.000519083, No Iterations 1
smoothSolver:  Solving for k, Initial residual = 0.0182766, Final residual = 0.00120803, No Iterations 3
ExecutionTime = 2.5 s  ClockTime = 2 s

Time = 89

smoothSolver:  Solving for Ux, Initial residual = 0.00168306, Final residual = 0.000140328, No Iterations 5
smoothSolver:  Solving for Uy, Initial residual = 0.0031576, Final residual = 0.000304572, No Iterations 5
GAMG:  Solving for p, Initial residual = 0.0222235, Final residual = 0.00104011, No Iterations 1
time step continuity errors : sum local = 0.0230498, global = 0.000373839, cumulative = -0.178516
smoothSolver:  Solving for epsilon, Initial residual = 0.0143227, Final residual = 0.000608944, No Iterations 1
smoothSolver:  Solving for k, Initial residual = 0.0180375, Final residual = 0.00119255, No Iterations 3
ExecutionTime = 2.53 s  ClockTime = 2 s

Time = 90

smoothSolver:  Solving for Ux, Initial residual = 0.00164734, Final residual = 0.000137057, No Iterations 5
smoothSolver:  Solving for Uy, Initial residual = 0.00306646, Final residual = 0.000298568, No Iterations 5
GAMG:  Solving for p, Initial residual = 0.0221168, Final residual = 0.00134562, No Iterations 1
time step continuity errors : sum local = 0.0298338, global = 0.00322586, cumulative = -0.17529
smoothSolver:  Solving for epsilon, Initial residual = 0.00474756, Final residual = 0.000234494, No Iterations 2
smoothSolver:  Solving for k, Initial residual = 0.017611, Final residual = 0.00116091, No Iterations 3
ExecutionTime = 2.55 s  ClockTime = 2 s

Time = 91

smoothSolver:  Solving for Ux, Initial residual = 0.00162666, Final residual = 0.000135445, No Iterations 5
smoothSolver:  Solving for Uy, Initial residual = 0.00317209, Final residual = 0.000302219, No Iterations 5
GAMG:  Solving for p, Initial residual = 0.0283604, Final residual = 0.001383, No Iterations 1
time step continuity errors : sum local = 0.030411, global = 0.00406422, cumulative = -0.171226
smoothSolver:  Solving for epsilon, Initial residual = 0.00264607, Final residual = 0.000226567, No Iterations 2
smoothSolver:  Solving for k, Initial residual = 0.0171408, Final residual = 0.00113346, No Iterations 3
ExecutionTime = 2.57 s  ClockTime = 2 s

Time = 92

smoothSolver:  Solving for Ux, Initial residual = 0.00156722, Final residual = 0.000130386, No Iterations 5
smoothSolver:  Solving for Uy, Initial residual = 0.00307746, Final residual = 0.000300049, No Iterations 5
GAMG:  Solving for p, Initial residual = 0.0270964, Final residual = 0.00136868, No Iterations 1
time step continuity errors : sum local = 0.0300748, global = 0.00537908, cumulative = -0.165847
smoothSolver:  Solving for epsilon, Initial residual = 0.00217186, Final residual = 8.4553e-05, No Iterations 3
smoothSolver:  Solving for k, Initial residual = 0.0166516, Final residual = 0.00110262, No Iterations 3
ExecutionTime = 2.6 s  ClockTime = 2 s

Time = 93

smoothSolver:  Solving for Ux, Initial residual = 0.00160521, Final residual = 0.000133716, No Iterations 5
smoothSolver:  Solving for Uy, Initial residual = 0.00326218, Final residual = 0.000307598, No Iterations 5
GAMG:  Solving for p, Initial residual = 0.0357209, Final residual = 0.00149032, No Iterations 1
time step continuity errors : sum local = 0.0323357, global = 0.00498078, cumulative = -0.160866
smoothSolver:  Solving for epsilon, Initial residual = 0.00210326, Final residual = 0.000208049, No Iterations 2
smoothSolver:  Solving for k, Initial residual = 0.0162266, Final residual = 0.00107632, No Iterations 3
ExecutionTime = 2.62 s  ClockTime = 2 s

Time = 94

smoothSolver:  Solving for Ux, Initial residual = 0.00159426, Final residual = 0.000132793, No Iterations 5
smoothSolver:  Solving for Uy, Initial residual = 0.00317264, Final residual = 0.000309426, No Iterations 5
GAMG:  Solving for p, Initial residual = 0.0306925, Final residual = 0.00124337, No Iterations 1
time step continuity errors : sum local = 0.0269829, global = 0.00553242, cumulative = -0.155334
smoothSolver:  Solving for epsilon, Initial residual = 0.00207424, Final residual = 0.000204068, No Iterations 2
smoothSolver:  Solving for k, Initial residual = 0.0158489, Final residual = 0.00105428, No Iterations 3
ExecutionTime = 2.65 s  ClockTime = 2 s

Time = 95

smoothSolver:  Solving for Ux, Initial residual = 0.00157356, Final residual = 0.000130945, No Iterations 5
smoothSolver:  Solving for Uy, Initial residual = 0.00334447, Final residual = 0.000314473, No Iterations 5
GAMG:  Solving for p, Initial residual = 0.0268623, Final residual = 0.00143566, No Iterations 1
time step continuity errors : sum local = 0.0308302, global = 0.00449675, cumulative = -0.150837
smoothSolver:  Solving for epsilon, Initial residual = 0.0019408, Final residual = 7.71475e-05, No Iterations 3
smoothSolver:  Solving for k, Initial residual = 0.0182266, Final residual = 0.00117688, No Iterations 3
ExecutionTime = 2.67 s  ClockTime = 2 s

Time = 96

smoothSolver:  Solving for Ux, Initial residual = 0.00151612, Final residual = 0.000124522, No Iterations 5
smoothSolver:  Solving for Uy, Initial residual = 0.0112567, Final residual = 0.000809509, No Iterations 3
GAMG:  Solving for p, Initial residual = 0.0293403, Final residual = 0.00110264, No Iterations 1
time step continuity errors : sum local = 0.0236404, global = 0.00499734, cumulative = -0.14584
smoothSolver:  Solving for epsilon, Initial residual = 2.67781e-05, Final residual = 1.05489e-06, No Iterations 3
smoothSolver:  Solving for k, Initial residual = 0.0712645, Final residual = 0.00343789, No Iterations 2
ExecutionTime = 2.69 s  ClockTime = 2 s

Time = 97

smoothSolver:  Solving for Ux, Initial residual = 0.00153163, Final residual = 0.00012739, No Iterations 5
smoothSolver:  Solving for Uy, Initial residual = 0.00356641, Final residual = 0.00032861, No Iterations 5
GAMG:  Solving for p, Initial residual = 0.0329025, Final residual = 0.00114185, No Iterations 1
time step continuity errors : sum local = 0.024234, global = 0.00512136, cumulative = -0.140718
smoothSolver:  Solving for epsilon, Initial residual = 0.00898335, Final residual = 0.000219029, No Iterations 1
smoothSolver:  Solving for k, Initial residual = 0.0182701, Final residual = 0.00104229, No Iterations 3
ExecutionTime = 2.72 s  ClockTime = 2 s

Time = 98

smoothSolver:  Solving for Ux, Initial residual = 0.0015399, Final residual = 0.000127941, No Iterations 5
smoothSolver:  Solving for Uy, Initial residual = 0.00320837, Final residual = 0.000315604, No Iterations 5
GAMG:  Solving for p, Initial residual = 0.0278067, Final residual = 0.00117704, No Iterations 1
time step continuity errors : sum local = 0.0250748, global = 0.00523688, cumulative = -0.135481
smoothSolver:  Solving for epsilon, Initial residual = 0.00232442, Final residual = 0.000135829, No Iterations 1
smoothSolver:  Solving for k, Initial residual = 0.0152228, Final residual = 0.00100055, No Iterations 3
ExecutionTime = 2.74 s  ClockTime = 2 s

Time = 99

smoothSolver:  Solving for Ux, Initial residual = 0.00151471, Final residual = 0.000125493, No Iterations 5
smoothSolver:  Solving for Uy, Initial residual = 0.003008, Final residual = 0.000198911, No Iterations 6
GAMG:  Solving for p, Initial residual = 0.0170382, Final residual = 0.00102838, No Iterations 2
time step continuity errors : sum local = 0.0218151, global = -0.00198334, cumulative = -0.137465
smoothSolver:  Solving for epsilon, Initial residual = 0.00117056, Final residual = 6.89607e-05, No Iterations 2
smoothSolver:  Solving for k, Initial residual = 0.0145639, Final residual = 0.000973817, No Iterations 3
ExecutionTime = 2.77 s  ClockTime = 2 s

Time = 100

smoothSolver:  Solving for Ux, Initial residual = 0.00148314, Final residual = 0.000122439, No Iterations 5
smoothSolver:  Solving for Uy, Initial residual = 0.00292394, Final residual = 0.000191856, No Iterations 6
GAMG:  Solving for p, Initial residual = 0.0220118, Final residual = 0.000793978, No Iterations 1
time step continuity errors : sum local = 0.0166511, global = -0.00163622, cumulative = -0.139101
smoothSolver:  Solving for epsilon, Initial residual = 0.000871543, Final residual = 7.57841e-05, No Iterations 2
smoothSolver:  Solving for k, Initial residual = 0.0140725, Final residual = 0.000949012, No Iterations 3
ExecutionTime = 2.84 s  ClockTime = 3 s

    functionObjects::turbulenceFields stressComponents writing field: turbulenceProperties:devReff

    functionObjects::pressure pressureCoefficient writing field: cp
writeCellCentres writeCellCentres write:
    writing cell-centres field C to 100
    Writing the x component field of the cell-centres Cx to 100
    Writing the y component field of the cell-centres Cy to 100
    Writing the z component field of the cell-centres Cz to 100
wallShearStress wallShearStress write:
    writing field wallShearStress
    min/max(upperWall) = (-15.3937 -0.0489232 -3.89916e-19), (-7.60163 0.0028676 1.78404e-19)
    min/max(lowerWall) = (-15.4502 -3.50618 -8.15997e-19), (4.50859 0.169964 1.27334e-18)
Time = 101

smoothSolver:  Solving for Ux, Initial residual = 0.00149218, Final residual = 0.000123106, No Iterations 5
smoothSolver:  Solving for Uy, Initial residual = 0.00311244, Final residual = 0.000298423, No Iterations 5
GAMG:  Solving for p, Initial residual = 0.0357218, Final residual = 0.00104995, No Iterations 1
time step continuity errors : sum local = 0.0218535, global = -0.00118516, cumulative = -0.140286
smoothSolver:  Solving for epsilon, Initial residual = 0.000890311, Final residual = 7.9294e-05, No Iterations 2
smoothSolver:  Solving for k, Initial residual = 0.0136586, Final residual = 0.000924836, No Iterations 3
ExecutionTime = 2.93 s  ClockTime = 3 s

Time = 102

smoothSolver:  Solving for Ux, Initial residual = 0.00147582, Final residual = 0.000121719, No Iterations 5
smoothSolver:  Solving for Uy, Initial residual = 0.0029875, Final residual = 0.000296815, No Iterations 5
GAMG:  Solving for p, Initial residual = 0.0285171, Final residual = 0.0012407, No Iterations 1
time step continuity errors : sum local = 0.0259698, global = 0.000448602, cumulative = -0.139837
smoothSolver:  Solving for epsilon, Initial residual = 0.000884903, Final residual = 8.15068e-05, No Iterations 2
smoothSolver:  Solving for k, Initial residual = 0.0133064, Final residual = 0.000905352, No Iterations 3
ExecutionTime = 2.97 s  ClockTime = 3 s

Time = 103

smoothSolver:  Solving for Ux, Initial residual = 0.00146139, Final residual = 0.000120333, No Iterations 5
smoothSolver:  Solving for Uy, Initial residual = 0.00301595, Final residual = 0.000297166, No Iterations 5
GAMG:  Solving for p, Initial residual = 0.029447, Final residual = 0.00128548, No Iterations 1
time step continuity errors : sum local = 0.0267134, global = 0.0021657, cumulative = -0.137672
smoothSolver:  Solving for epsilon, Initial residual = 0.000872213, Final residual = 8.36433e-05, No Iterations 2
smoothSolver:  Solving for k, Initial residual = 0.0129766, Final residual = 0.000883359, No Iterations 3
ExecutionTime = 2.99 s  ClockTime = 3 s

Time = 104

smoothSolver:  Solving for Ux, Initial residual = 0.00144465, Final residual = 0.000118823, No Iterations 5
smoothSolver:  Solving for Uy, Initial residual = 0.00298023, Final residual = 0.000195197, No Iterations 6
GAMG:  Solving for p, Initial residual = 0.0290328, Final residual = 0.00130826, No Iterations 1
time step continuity errors : sum local = 0.0272948, global = 0.00390227, cumulative = -0.133769
smoothSolver:  Solving for epsilon, Initial residual = 0.000888024, Final residual = 8.54183e-05, No Iterations 2
smoothSolver:  Solving for k, Initial residual = 0.0126868, Final residual = 0.000868675, No Iterations 3
ExecutionTime = 3.02 s  ClockTime = 3 s

Time = 105

smoothSolver:  Solving for Ux, Initial residual = 0.00143366, Final residual = 0.000117545, No Iterations 5
smoothSolver:  Solving for Uy, Initial residual = 0.00313864, Final residual = 0.000300452, No Iterations 5
GAMG:  Solving for p, Initial residual = 0.0261946, Final residual = 0.00159267, No Iterations 1
time step continuity errors : sum local = 0.0329721, global = 0.00425994, cumulative = -0.129509
smoothSolver:  Solving for epsilon, Initial residual = 0.000843558, Final residual = 8.09717e-05, No Iterations 2
smoothSolver:  Solving for k, Initial residual = 0.0171349, Final residual = 0.00109408, No Iterations 3
ExecutionTime = 3.04 s  ClockTime = 3 s

Time = 106

smoothSolver:  Solving for Ux, Initial residual = 0.00142606, Final residual = 0.000116469, No Iterations 5
smoothSolver:  Solving for Uy, Initial residual = 0.00579697, Final residual = 0.000480548, No Iterations 4
GAMG:  Solving for p, Initial residual = 0.0283345, Final residual = 0.00132832, No Iterations 1
time step continuity errors : sum local = 0.0275366, global = 0.00471393, cumulative = -0.124796
smoothSolver:  Solving for epsilon, Initial residual = 1.57607e-05, Final residual = 1.49361e-06, No Iterations 2
smoothSolver:  Solving for k, Initial residual = 0.0655512, Final residual = 0.0028195, No Iterations 2
ExecutionTime = 3.05 s  ClockTime = 3 s

Time = 107

smoothSolver:  Solving for Ux, Initial residual = 0.00137336, Final residual = 0.000112013, No Iterations 5
smoothSolver:  Solving for Uy, Initial residual = 0.00315513, Final residual = 0.000305848, No Iterations 5
GAMG:  Solving for p, Initial residual = 0.0305819, Final residual = 0.00128971, No Iterations 1
time step continuity errors : sum local = 0.026485, global = 0.004288, cumulative = -0.120508
smoothSolver:  Solving for epsilon, Initial residual = 0.000113023, Final residual = 1.06378e-05, No Iterations 2
smoothSolver:  Solving for k, Initial residual = 0.0150327, Final residual = 0.000876778, No Iterations 3
ExecutionTime = 3.08 s  ClockTime = 3 s

Time = 108

smoothSolver:  Solving for Ux, Initial residual = 0.00139438, Final residual = 0.000113747, No Iterations 5
smoothSolver:  Solving for Uy, Initial residual = 0.00304343, Final residual = 0.000199257, No Iterations 6
GAMG:  Solving for p, Initial residual = 0.0291157, Final residual = 0.00108052, No Iterations 1
time step continuity errors : sum local = 0.0222337, global = 0.00426541, cumulative = -0.116242
smoothSolver:  Solving for epsilon, Initial residual = 0.000236184, Final residual = 2.04763e-05, No Iterations 2
smoothSolver:  Solving for k, Initial residual = 0.012717, Final residual = 0.000849276, No Iterations 3
ExecutionTime = 3.1 s  ClockTime = 3 s

Time = 109

smoothSolver:  Solving for Ux, Initial residual = 0.0013837, Final residual = 0.000112543, No Iterations 5
smoothSolver:  Solving for Uy, Initial residual = 0.00297595, Final residual = 0.000194349, No Iterations 6
GAMG:  Solving for p, Initial residual = 0.025316, Final residual = 0.00127664, No Iterations 1
time step continuity errors : sum local = 0.0260229, global = 0.00317376, cumulative = -0.113068
smoothSolver:  Solving for epsilon, Initial residual = 0.000318392, Final residual = 2.7087e-05, No Iterations 2
smoothSolver:  Solving for k, Initial residual = 0.0119865, Final residual = 0.000826278, No Iterations 3
ExecutionTime = 3.14 s  ClockTime = 3 s

Time = 110

smoothSolver:  Solving for Ux, Initial residual = 0.00137556, Final residual = 0.00011163, No Iterations 5
smoothSolver:  Solving for Uy, Initial residual = 0.00301395, Final residual = 0.000298695, No Iterations 5
GAMG:  Solving for p, Initial residual = 0.0286593, Final residual = 0.000992517, No Iterations 1
time step continuity errors : sum local = 0.0202477, global = 0.00321759, cumulative = -0.109851
smoothSolver:  Solving for epsilon, Initial residual = 0.000312354, Final residual = 2.98289e-05, No Iterations 2
smoothSolver:  Solving for k, Initial residual = 0.0134501, Final residual = 0.00082895, No Iterations 3
ExecutionTime = 3.16 s  ClockTime = 3 s

Time = 111

smoothSolver:  Solving for Ux, Initial residual = 0.00131218, Final residual = 0.000105363, No Iterations 5
smoothSolver:  Solving for Uy, Initial residual = 0.00331968, Final residual = 0.000292675, No Iterations 5
GAMG:  Solving for p, Initial residual = 0.0289304, Final residual = 0.00110538, No Iterations 1
time step continuity errors : sum local = 0.0223686, global = 0.00343722, cumulative = -0.106414
smoothSolver:  Solving for epsilon, Initial residual = 9.48752e-05, Final residual = 9.18946e-06, No Iterations 2
smoothSolver:  Solving for k, Initial residual = 0.0144962, Final residual = 0.000782873, No Iterations 3
ExecutionTime = 3.18 s  ClockTime = 3 s

Time = 112

smoothSolver:  Solving for Ux, Initial residual = 0.00133013, Final residual = 0.000107185, No Iterations 5
smoothSolver:  Solving for Uy, Initial residual = 0.00289542, Final residual = 0.000191119, No Iterations 6
GAMG:  Solving for p, Initial residual = 0.0287195, Final residual = 0.00107026, No Iterations 1
time step continuity errors : sum local = 0.0217376, global = 0.00392519, cumulative = -0.102488
smoothSolver:  Solving for epsilon, Initial residual = 0.00519916, Final residual = 0.000111882, No Iterations 1
smoothSolver:  Solving for k, Initial residual = 0.012017, Final residual = 0.000800153, No Iterations 3
ExecutionTime = 3.21 s  ClockTime = 3 s

Time = 113

smoothSolver:  Solving for Ux, Initial residual = 0.00132943, Final residual = 0.000106748, No Iterations 5
smoothSolver:  Solving for Uy, Initial residual = 0.00281368, Final residual = 0.000188086, No Iterations 6
GAMG:  Solving for p, Initial residual = 0.0222067, Final residual = 0.00143325, No Iterations 1
time step continuity errors : sum local = 0.0289905, global = 0.00377974, cumulative = -0.0987086
smoothSolver:  Solving for epsilon, Initial residual = 0.00124853, Final residual = 7.32488e-05, No Iterations 1
smoothSolver:  Solving for k, Initial residual = 0.0110826, Final residual = 0.00078077, No Iterations 3
ExecutionTime = 3.23 s  ClockTime = 3 s

Time = 114

[...]
GAMG:  Solving for p, Initial residual = 0.000342337, Final residual = 2.99453e-05, No Iterations 1
time step continuity errors : sum local = 0.00022015, global = 1.77416e-05, cumulative = 0.417355
smoothSolver:  Solving for epsilon, Initial residual = 5.27924e-05, Final residual = 5.03793e-06, No Iterations 3
smoothSolver:  Solving for k, Initial residual = 0.000497613, Final residual = 4.90302e-05, No Iterations 3
ExecutionTime = 48.45 s  ClockTime = 48 s

Time = 1974

smoothSolver:  Solving for Ux, Initial residual = 0.000271696, Final residual = 2.65378e-05, No Iterations 3
smoothSolver:  Solving for Uy, Initial residual = 9.48786e-06, Final residual = 6.65673e-07, No Iterations 4
GAMG:  Solving for p, Initial residual = 0.000341739, Final residual = 2.9985e-05, No Iterations 1
time step continuity errors : sum local = 0.000220397, global = 1.78241e-05, cumulative = 0.417373
smoothSolver:  Solving for epsilon, Initial residual = 5.27463e-05, Final residual = 5.03966e-06, No Iterations 3
smoothSolver:  Solving for k, Initial residual = 0.000497619, Final residual = 4.90315e-05, No Iterations 3
ExecutionTime = 48.47 s  ClockTime = 48 s

Time = 1975

smoothSolver:  Solving for Ux, Initial residual = 0.000270808, Final residual = 2.64492e-05, No Iterations 3
smoothSolver:  Solving for Uy, Initial residual = 9.48251e-06, Final residual = 6.64588e-07, No Iterations 4
GAMG:  Solving for p, Initial residual = 0.000340195, Final residual = 3.00281e-05, No Iterations 1
time step continuity errors : sum local = 0.000220669, global = 1.78722e-05, cumulative = 0.417391
smoothSolver:  Solving for epsilon, Initial residual = 5.26558e-05, Final residual = 5.0381e-06, No Iterations 3
smoothSolver:  Solving for k, Initial residual = 0.000497632, Final residual = 4.90303e-05, No Iterations 3
ExecutionTime = 48.5 s  ClockTime = 48 s

Time = 1976

smoothSolver:  Solving for Ux, Initial residual = 0.00027095, Final residual = 2.64634e-05, No Iterations 3
smoothSolver:  Solving for Uy, Initial residual = 9.474e-06, Final residual = 6.64074e-07, No Iterations 4
GAMG:  Solving for p, Initial residual = 0.00033927, Final residual = 3.01049e-05, No Iterations 1
time step continuity errors : sum local = 0.000221188, global = 1.78646e-05, cumulative = 0.417409
smoothSolver:  Solving for epsilon, Initial residual = 5.28325e-05, Final residual = 5.04362e-06, No Iterations 3
smoothSolver:  Solving for k, Initial residual = 0.000497717, Final residual = 4.90387e-05, No Iterations 3
ExecutionTime = 48.52 s  ClockTime = 48 s

Time = 1977

smoothSolver:  Solving for Ux, Initial residual = 0.000270669, Final residual = 2.64353e-05, No Iterations 3
smoothSolver:  Solving for Uy, Initial residual = 9.47743e-06, Final residual = 6.63687e-07, No Iterations 4
GAMG:  Solving for p, Initial residual = 0.00034026, Final residual = 3.02542e-05, No Iterations 1
time step continuity errors : sum local = 0.000222239, global = 1.8234e-05, cumulative = 0.417427
smoothSolver:  Solving for epsilon, Initial residual = 5.27153e-05, Final residual = 5.04117e-06, No Iterations 3
smoothSolver:  Solving for k, Initial residual = 0.000497676, Final residual = 4.90369e-05, No Iterations 3
ExecutionTime = 48.54 s  ClockTime = 48 s

Time = 1978

smoothSolver:  Solving for Ux, Initial residual = 0.000269917, Final residual = 2.63602e-05, No Iterations 3
smoothSolver:  Solving for Uy, Initial residual = 9.49137e-06, Final residual = 6.62933e-07, No Iterations 4
GAMG:  Solving for p, Initial residual = 0.000340949, Final residual = 3.02455e-05, No Iterations 1
time step continuity errors : sum local = 0.000222128, global = 1.85744e-05, cumulative = 0.417446
smoothSolver:  Solving for epsilon, Initial residual = 5.26474e-05, Final residual = 5.03929e-06, No Iterations 3
smoothSolver:  Solving for k, Initial residual = 0.000497798, Final residual = 4.9049e-05, No Iterations 3
ExecutionTime = 48.57 s  ClockTime = 48 s

Time = 1979

smoothSolver:  Solving for Ux, Initial residual = 0.000269931, Final residual = 2.63616e-05, No Iterations 3
smoothSolver:  Solving for Uy, Initial residual = 9.49765e-06, Final residual = 6.62684e-07, No Iterations 4
GAMG:  Solving for p, Initial residual = 0.000341326, Final residual = 3.02545e-05, No Iterations 1
time step continuity errors : sum local = 0.000222148, global = 1.88684e-05, cumulative = 0.417465
smoothSolver:  Solving for epsilon, Initial residual = 5.28139e-05, Final residual = 5.04373e-06, No Iterations 3
smoothSolver:  Solving for k, Initial residual = 0.000497895, Final residual = 4.90596e-05, No Iterations 3
ExecutionTime = 48.59 s  ClockTime = 48 s

Time = 1980

smoothSolver:  Solving for Ux, Initial residual = 0.000269774, Final residual = 2.63455e-05, No Iterations 3
smoothSolver:  Solving for Uy, Initial residual = 9.50202e-06, Final residual = 6.62196e-07, No Iterations 4
GAMG:  Solving for p, Initial residual = 0.000340011, Final residual = 3.02189e-05, No Iterations 1
time step continuity errors : sum local = 0.000221842, global = 1.91036e-05, cumulative = 0.417484
smoothSolver:  Solving for epsilon, Initial residual = 5.26492e-05, Final residual = 5.03528e-06, No Iterations 3
smoothSolver:  Solving for k, Initial residual = 0.000498021, Final residual = 4.90738e-05, No Iterations 3
ExecutionTime = 48.61 s  ClockTime = 48 s

Time = 1981

smoothSolver:  Solving for Ux, Initial residual = 0.0002689, Final residual = 2.62587e-05, No Iterations 3
smoothSolver:  Solving for Uy, Initial residual = 9.5149e-06, Final residual = 6.61146e-07, No Iterations 4
GAMG:  Solving for p, Initial residual = 0.000339238, Final residual = 3.0191e-05, No Iterations 1
time step continuity errors : sum local = 0.000221592, global = 1.92581e-05, cumulative = 0.417503
smoothSolver:  Solving for epsilon, Initial residual = 5.25704e-05, Final residual = 5.03296e-06, No Iterations 3
smoothSolver:  Solving for k, Initial residual = 0.000498282, Final residual = 4.90971e-05, No Iterations 3
ExecutionTime = 48.63 s  ClockTime = 48 s

Time = 1982

smoothSolver:  Solving for Ux, Initial residual = 0.000269033, Final residual = 2.62717e-05, No Iterations 3
smoothSolver:  Solving for Uy, Initial residual = 9.51371e-06, Final residual = 6.60898e-07, No Iterations 4
GAMG:  Solving for p, Initial residual = 0.000340156, Final residual = 3.01052e-05, No Iterations 1
time step continuity errors : sum local = 0.000220917, global = 1.93306e-05, cumulative = 0.417522
smoothSolver:  Solving for epsilon, Initial residual = 5.26912e-05, Final residual = 5.03257e-06, No Iterations 3
smoothSolver:  Solving for k, Initial residual = 0.000498398, Final residual = 4.91055e-05, No Iterations 3
ExecutionTime = 48.66 s  ClockTime = 48 s

Time = 1983

smoothSolver:  Solving for Ux, Initial residual = 0.000268748, Final residual = 2.62433e-05, No Iterations 3
smoothSolver:  Solving for Uy, Initial residual = 9.51309e-06, Final residual = 6.60248e-07, No Iterations 4
GAMG:  Solving for p, Initial residual = 0.000338691, Final residual = 2.98826e-05, No Iterations 1
time step continuity errors : sum local = 0.00021924, global = 1.8867e-05, cumulative = 0.417541
smoothSolver:  Solving for epsilon, Initial residual = 5.25623e-05, Final residual = 5.02786e-06, No Iterations 3
smoothSolver:  Solving for k, Initial residual = 0.00049836, Final residual = 4.91036e-05, No Iterations 3
ExecutionTime = 48.68 s  ClockTime = 48 s

Time = 1984

smoothSolver:  Solving for Ux, Initial residual = 0.000268006, Final residual = 2.61693e-05, No Iterations 3
smoothSolver:  Solving for Uy, Initial residual = 9.49563e-06, Final residual = 6.59312e-07, No Iterations 4
GAMG:  Solving for p, Initial residual = 0.000336724, Final residual = 2.98293e-05, No Iterations 1
time step continuity errors : sum local = 0.000218809, global = 1.87718e-05, cumulative = 0.41756
smoothSolver:  Solving for epsilon, Initial residual = 5.2466e-05, Final residual = 5.02336e-06, No Iterations 3
smoothSolver:  Solving for k, Initial residual = 0.000498389, Final residual = 4.91063e-05, No Iterations 3
ExecutionTime = 48.7 s  ClockTime = 48 s

Time = 1985

smoothSolver:  Solving for Ux, Initial residual = 0.000268011, Final residual = 2.61698e-05, No Iterations 3
smoothSolver:  Solving for Uy, Initial residual = 9.47921e-06, Final residual = 6.59035e-07, No Iterations 4
GAMG:  Solving for p, Initial residual = 0.000335585, Final residual = 2.96717e-05, No Iterations 1
time step continuity errors : sum local = 0.000217614, global = 1.86755e-05, cumulative = 0.417579
smoothSolver:  Solving for epsilon, Initial residual = 5.25648e-05, Final residual = 5.02146e-06, No Iterations 3
smoothSolver:  Solving for k, Initial residual = 0.000498458, Final residual = 4.91174e-05, No Iterations 3
ExecutionTime = 48.73 s  ClockTime = 48 s

Time = 1986

smoothSolver:  Solving for Ux, Initial residual = 0.000267854, Final residual = 2.61533e-05, No Iterations 3
smoothSolver:  Solving for Uy, Initial residual = 9.47272e-06, Final residual = 6.58658e-07, No Iterations 4
GAMG:  Solving for p, Initial residual = 0.000335058, Final residual = 2.94826e-05, No Iterations 1
time step continuity errors : sum local = 0.000216189, global = 1.86252e-05, cumulative = 0.417597
smoothSolver:  Solving for epsilon, Initial residual = 5.2431e-05, Final residual = 5.01582e-06, No Iterations 3
smoothSolver:  Solving for k, Initial residual = 0.000498054, Final residual = 4.90804e-05, No Iterations 3
ExecutionTime = 48.75 s  ClockTime = 48 s

Time = 1987

smoothSolver:  Solving for Ux, Initial residual = 0.000266999, Final residual = 2.6068e-05, No Iterations 3
smoothSolver:  Solving for Uy, Initial residual = 9.44582e-06, Final residual = 6.57768e-07, No Iterations 4
GAMG:  Solving for p, Initial residual = 0.000333735, Final residual = 2.92062e-05, No Iterations 1
time step continuity errors : sum local = 0.000214125, global = 1.81301e-05, cumulative = 0.417615
smoothSolver:  Solving for epsilon, Initial residual = 5.23269e-05, Final residual = 5.01096e-06, No Iterations 3
smoothSolver:  Solving for k, Initial residual = 0.000498397, Final residual = 4.91132e-05, No Iterations 3
ExecutionTime = 48.77 s  ClockTime = 48 s

Time = 1988

smoothSolver:  Solving for Ux, Initial residual = 0.000267127, Final residual = 2.60803e-05, No Iterations 3
smoothSolver:  Solving for Uy, Initial residual = 9.41672e-06, Final residual = 6.57768e-07, No Iterations 4
GAMG:  Solving for p, Initial residual = 0.000332124, Final residual = 2.90694e-05, No Iterations 1
time step continuity errors : sum local = 0.000213086, global = 1.75997e-05, cumulative = 0.417633
smoothSolver:  Solving for epsilon, Initial residual = 5.24145e-05, Final residual = 5.00764e-06, No Iterations 3
smoothSolver:  Solving for k, Initial residual = 0.000498429, Final residual = 4.91167e-05, No Iterations 3
ExecutionTime = 48.79 s  ClockTime = 48 s

Time = 1989

smoothSolver:  Solving for Ux, Initial residual = 0.000266847, Final residual = 2.6052e-05, No Iterations 3
smoothSolver:  Solving for Uy, Initial residual = 9.3912e-06, Final residual = 6.57384e-07, No Iterations 4
GAMG:  Solving for p, Initial residual = 0.000331653, Final residual = 2.91215e-05, No Iterations 1
time step continuity errors : sum local = 0.000213433, global = 1.76128e-05, cumulative = 0.417651
smoothSolver:  Solving for epsilon, Initial residual = 5.23082e-05, Final residual = 5.00495e-06, No Iterations 3
smoothSolver:  Solving for k, Initial residual = 0.000498433, Final residual = 4.91175e-05, No Iterations 3
ExecutionTime = 48.81 s  ClockTime = 49 s

Time = 1990

smoothSolver:  Solving for Ux, Initial residual = 0.000266124, Final residual = 2.59794e-05, No Iterations 3
smoothSolver:  Solving for Uy, Initial residual = 9.36186e-06, Final residual = 6.56745e-07, No Iterations 4
GAMG:  Solving for p, Initial residual = 0.000331449, Final residual = 2.9073e-05, No Iterations 1
time step continuity errors : sum local = 0.000213041, global = 1.77152e-05, cumulative = 0.417668
smoothSolver:  Solving for epsilon, Initial residual = 5.2205e-05, Final residual = 4.99968e-06, No Iterations 3
smoothSolver:  Solving for k, Initial residual = 0.000498512, Final residual = 4.91267e-05, No Iterations 3
ExecutionTime = 48.84 s  ClockTime = 49 s

Time = 1991

smoothSolver:  Solving for Ux, Initial residual = 0.000266125, Final residual = 2.59793e-05, No Iterations 3
smoothSolver:  Solving for Uy, Initial residual = 9.34821e-06, Final residual = 6.56713e-07, No Iterations 4
GAMG:  Solving for p, Initial residual = 0.000330124, Final residual = 2.89131e-05, No Iterations 1
time step continuity errors : sum local = 0.000211832, global = 1.73822e-05, cumulative = 0.417686
smoothSolver:  Solving for epsilon, Initial residual = 5.23357e-05, Final residual = 5.001e-06, No Iterations 3
smoothSolver:  Solving for k, Initial residual = 0.000498669, Final residual = 4.9144e-05, No Iterations 3
ExecutionTime = 48.86 s  ClockTime = 49 s

Time = 1992

smoothSolver:  Solving for Ux, Initial residual = 0.000265968, Final residual = 2.59629e-05, No Iterations 3
smoothSolver:  Solving for Uy, Initial residual = 9.33318e-06, Final residual = 6.56465e-07, No Iterations 4
GAMG:  Solving for p, Initial residual = 0.000329842, Final residual = 2.90362e-05, No Iterations 1
time step continuity errors : sum local = 0.000212699, global = 1.7592e-05, cumulative = 0.417703
smoothSolver:  Solving for epsilon, Initial residual = 5.22178e-05, Final residual = 4.99672e-06, No Iterations 3
smoothSolver:  Solving for k, Initial residual = 0.000498829, Final residual = 4.91606e-05, No Iterations 3
ExecutionTime = 48.88 s  ClockTime = 49 s

Time = 1993

smoothSolver:  Solving for Ux, Initial residual = 0.000265129, Final residual = 2.58792e-05, No Iterations 3
smoothSolver:  Solving for Uy, Initial residual = 9.31713e-06, Final residual = 6.55721e-07, No Iterations 4
GAMG:  Solving for p, Initial residual = 0.000330589, Final residual = 2.89497e-05, No Iterations 1
time step continuity errors : sum local = 0.000212028, global = 1.73371e-05, cumulative = 0.417721
smoothSolver:  Solving for epsilon, Initial residual = 5.21091e-05, Final residual = 4.99132e-06, No Iterations 3
smoothSolver:  Solving for k, Initial residual = 0.000498942, Final residual = 4.91707e-05, No Iterations 3
ExecutionTime = 48.9 s  ClockTime = 49 s

Time = 1994

smoothSolver:  Solving for Ux, Initial residual = 0.00026525, Final residual = 2.58908e-05, No Iterations 3
smoothSolver:  Solving for Uy, Initial residual = 9.30343e-06, Final residual = 6.55806e-07, No Iterations 4
GAMG:  Solving for p, Initial residual = 0.000330403, Final residual = 2.91106e-05, No Iterations 1
time step continuity errors : sum local = 0.00021317, global = 1.75919e-05, cumulative = 0.417738
smoothSolver:  Solving for epsilon, Initial residual = 5.22192e-05, Final residual = 4.99035e-06, No Iterations 3
smoothSolver:  Solving for k, Initial residual = 0.000499158, Final residual = 4.91914e-05, No Iterations 3
ExecutionTime = 48.93 s  ClockTime = 49 s

Time = 1995

smoothSolver:  Solving for Ux, Initial residual = 0.00026497, Final residual = 2.58625e-05, No Iterations 3
smoothSolver:  Solving for Uy, Initial residual = 9.30094e-06, Final residual = 6.55538e-07, No Iterations 4
GAMG:  Solving for p, Initial residual = 0.000329192, Final residual = 2.91761e-05, No Iterations 1
time step continuity errors : sum local = 0.000213613, global = 1.78802e-05, cumulative = 0.417756
smoothSolver:  Solving for epsilon, Initial residual = 5.20635e-05, Final residual = 4.98279e-06, No Iterations 3
smoothSolver:  Solving for k, Initial residual = 0.000499475, Final residual = 4.92202e-05, No Iterations 3
ExecutionTime = 48.95 s  ClockTime = 49 s

Time = 1996

smoothSolver:  Solving for Ux, Initial residual = 0.000264257, Final residual = 2.57913e-05, No Iterations 3
smoothSolver:  Solving for Uy, Initial residual = 9.29381e-06, Final residual = 6.54972e-07, No Iterations 4
GAMG:  Solving for p, Initial residual = 0.00032862, Final residual = 2.90738e-05, No Iterations 1
time step continuity errors : sum local = 0.000212826, global = 1.76787e-05, cumulative = 0.417774
smoothSolver:  Solving for epsilon, Initial residual = 5.19605e-05, Final residual = 4.97749e-06, No Iterations 3
smoothSolver:  Solving for k, Initial residual = 0.00049932, Final residual = 4.92041e-05, No Iterations 3
ExecutionTime = 48.97 s  ClockTime = 49 s

Time = 1997

smoothSolver:  Solving for Ux, Initial residual = 0.000264249, Final residual = 2.57907e-05, No Iterations 3
smoothSolver:  Solving for Uy, Initial residual = 9.30018e-06, Final residual = 6.5496e-07, No Iterations 4
GAMG:  Solving for p, Initial residual = 0.000327995, Final residual = 2.92321e-05, No Iterations 1
time step continuity errors : sum local = 0.000213949, global = 1.79293e-05, cumulative = 0.417792
smoothSolver:  Solving for epsilon, Initial residual = 5.20155e-05, Final residual = 4.97181e-06, No Iterations 3
smoothSolver:  Solving for k, Initial residual = 0.000499532, Final residual = 4.92263e-05, No Iterations 3
ExecutionTime = 49 s  ClockTime = 49 s

Time = 1998

smoothSolver:  Solving for Ux, Initial residual = 0.000264088, Final residual = 2.57742e-05, No Iterations 3
smoothSolver:  Solving for Uy, Initial residual = 9.31689e-06, Final residual = 6.54856e-07, No Iterations 4
GAMG:  Solving for p, Initial residual = 0.00032732, Final residual = 2.90832e-05, No Iterations 1
time step continuity errors : sum local = 0.000212822, global = 1.76524e-05, cumulative = 0.417809
smoothSolver:  Solving for epsilon, Initial residual = 5.18795e-05, Final residual = 4.96558e-06, No Iterations 3
smoothSolver:  Solving for k, Initial residual = 0.000499578, Final residual = 4.92336e-05, No Iterations 3
ExecutionTime = 49.02 s  ClockTime = 49 s

Time = 1999

smoothSolver:  Solving for Ux, Initial residual = 0.000263259, Final residual = 2.56919e-05, No Iterations 3
smoothSolver:  Solving for Uy, Initial residual = 9.33151e-06, Final residual = 6.54203e-07, No Iterations 4
GAMG:  Solving for p, Initial residual = 0.000324542, Final residual = 2.91802e-05, No Iterations 1
time step continuity errors : sum local = 0.000213496, global = 1.78188e-05, cumulative = 0.417827
smoothSolver:  Solving for epsilon, Initial residual = 5.17518e-05, Final residual = 4.95822e-06, No Iterations 3
smoothSolver:  Solving for k, Initial residual = 0.000499821, Final residual = 4.92552e-05, No Iterations 3
ExecutionTime = 49.04 s  ClockTime = 49 s

Time = 2000

smoothSolver:  Solving for Ux, Initial residual = 0.00026337, Final residual = 2.57027e-05, No Iterations 3
smoothSolver:  Solving for Uy, Initial residual = 9.34914e-06, Final residual = 6.5444e-07, No Iterations 4
GAMG:  Solving for p, Initial residual = 0.000324046, Final residual = 2.89615e-05, No Iterations 1
time step continuity errors : sum local = 0.000211858, global = 1.74672e-05, cumulative = 0.417845
smoothSolver:  Solving for epsilon, Initial residual = 5.18409e-05, Final residual = 4.95541e-06, No Iterations 3
smoothSolver:  Solving for k, Initial residual = 0.00049977, Final residual = 4.92511e-05, No Iterations 3
ExecutionTime = 49.12 s  ClockTime = 49 s

    functionObjects::turbulenceFields stressComponents writing field: turbulenceProperties:devReff

    functionObjects::pressure pressureCoefficient writing field: cp
writeCellCentres writeCellCentres write:
    writing cell-centres field C to 2000
    Writing the x component field of the cell-centres Cx to 2000
    Writing the y component field of the cell-centres Cy to 2000
    Writing the z component field of the cell-centres Cz to 2000
wallShearStress wallShearStress write:
    writing field wallShearStress
    min/max(upperWall) = (-10.8805 -0.00331223 -3.57953e-20), (-4.04401 0.00916804 1.23877e-20)
    min/max(lowerWall) = (-10.9408 -0.472295 -1.03211e-18), (2.89226 0.0714147 1.14932e-18)
End

Killing PID 40600
Getting LinuxMem: [Errno 2] No such file or directory: '/proc/40600/status'
