/*---------------------------------------------------------------------------*\
| =========                 |                                                 |
| \\      /  F ield         | OpenFOAM: The Open Source CFD Toolbox           |
|  \\    /   O peration     | Version:  2306                                  |
|   \\  /    A nd           | Website:  www.openfoam.com                      |
|    \\/     M anipulation  |                                                 |
\*---------------------------------------------------------------------------*/
Build  : _fbf00d6b-20230626 OPENFOAM=2306 version=2306
Arch   : "LSB;label=32;scalar=64"
Exec   : simpleFoam
Date   : Feb 20 2024
Time   : 20:02:56
Host   : johanes2022
PID    : 73459
I/O    : uncollated
Case   : /home/juan/OpenFOAM/juan-v2306/run/Skill_Lync/Introduction_to_OpenFOAM_development/Week10-Challenge/backwardFacingStep2D/kOmega
nProcs : 1
trapFpe: Floating point exception trapping enabled (FOAM_SIGFPE).
fileModificationChecking : Monitoring run-time modified files using timeStampMaster (fileModificationSkew 5, maxFileModificationPolls 20)
allowSystemOperations : Allowing user-supplied system call operations

// * * * * * * * * * * * * * * * * * * * * * * * * * * * * * * * * * * * * * //
Create time

Create mesh for time = 0


SIMPLE: convergence criteria
    field p	 tolerance 0.0001
    field U	 tolerance 1e-06
    field "(k|epsilon|omega|f|v2)"	 tolerance 1e-05

Reading field p

Reading field U

Reading/calculating face flux field phi

Selecting incompressible transport model Newtonian
Selecting turbulence model type RAS
Selecting RAS turbulence model kOmega
RAS
{
    RASModel        kOmega;
    turbulence      on;
    printCoeffs     on;
    betaStar        0.09;
    beta            0.072;
    gamma           0.52;
    alphaK          0.5;
    alphaOmega      0.5;
}

No MRF models present

No finite volume options present

Starting time loop

turbulenceFields stressComponents: storing fields:
    turbulenceProperties:devReff

pressure pressureCoefficient:
    Operating mode: staticCoeff
    Not including hydrostatic effects

Sampled set:
    Uref -> raw
    x_by_h_m04 -> raw
    x_by_h_01 -> raw
    x_by_h_04 -> raw
    x_by_h_06 -> raw
    x_by_h_10 -> raw

wallShearStress wallShearStress:
    processing all wall patches

Time = 1

smoothSolver:  Solving for Ux, Initial residual = 1, Final residual = 0.0643832, No Iterations 4
smoothSolver:  Solving for Uy, Initial residual = 1, Final residual = 0.0886523, No Iterations 4
GAMG:  Solving for p, Initial residual = 1, Final residual = 0.0595309, No Iterations 10
time step continuity errors : sum local = 1.11241, global = -0.124674, cumulative = -0.124674
smoothSolver:  Solving for omega, Initial residual = 0.266865, Final residual = 0.0165371, No Iterations 2
smoothSolver:  Solving for k, Initial residual = 1, Final residual = 0.0558601, No Iterations 2
bounding k, min: -3.23572 max: 517.451 average: 12.6934
ExecutionTime = 0.3 s  ClockTime = 0 s

Time = 2

smoothSolver:  Solving for Ux, Initial residual = 0.0162795, Final residual = 0.0011386, No Iterations 4
smoothSolver:  Solving for Uy, Initial residual = 0.0340544, Final residual = 0.00265842, No Iterations 4
GAMG:  Solving for p, Initial residual = 0.0753398, Final residual = 0.00548867, No Iterations 4
time step continuity errors : sum local = 5.28629, global = 0.740347, cumulative = 0.615672
smoothSolver:  Solving for omega, Initial residual = 0.0134412, Final residual = 5.64539e-05, No Iterations 1
smoothSolver:  Solving for k, Initial residual = 0.302524, Final residual = 0.0159754, No Iterations 2
ExecutionTime = 0.33 s  ClockTime = 0 s

Time = 3

smoothSolver:  Solving for Ux, Initial residual = 0.00861162, Final residual = 0.000637777, No Iterations 4
smoothSolver:  Solving for Uy, Initial residual = 0.188369, Final residual = 0.0145917, No Iterations 3
GAMG:  Solving for p, Initial residual = 0.211709, Final residual = 0.0137263, No Iterations 3
time step continuity errors : sum local = 3.5584, global = -0.37427, cumulative = 0.241402
smoothSolver:  Solving for omega, Initial residual = 0.000290954, Final residual = 1.6192e-05, No Iterations 1
smoothSolver:  Solving for k, Initial residual = 0.170708, Final residual = 0.0126206, No Iterations 2
ExecutionTime = 0.36 s  ClockTime = 0 s

Time = 4

smoothSolver:  Solving for Ux, Initial residual = 0.01095, Final residual = 0.000909019, No Iterations 4
smoothSolver:  Solving for Uy, Initial residual = 0.0854802, Final residual = 0.00610428, No Iterations 3
GAMG:  Solving for p, Initial residual = 0.15539, Final residual = 0.0141404, No Iterations 2
time step continuity errors : sum local = 1.6969, global = -0.136091, cumulative = 0.105311
smoothSolver:  Solving for omega, Initial residual = 0.000183076, Final residual = 1.784e-05, No Iterations 1
smoothSolver:  Solving for k, Initial residual = 0.119207, Final residual = 0.0108492, No Iterations 2
ExecutionTime = 0.38 s  ClockTime = 0 s

Time = 5

smoothSolver:  Solving for Ux, Initial residual = 0.009355, Final residual = 0.000799442, No Iterations 4
smoothSolver:  Solving for Uy, Initial residual = 0.0651458, Final residual = 0.00565047, No Iterations 3
GAMG:  Solving for p, Initial residual = 0.121318, Final residual = 0.00459166, No Iterations 3
time step continuity errors : sum local = 0.419225, global = -0.0666124, cumulative = 0.0386986
smoothSolver:  Solving for omega, Initial residual = 7.87377e-05, Final residual = 4.59115e-06, No Iterations 2
smoothSolver:  Solving for k, Initial residual = 0.0929893, Final residual = 0.00382334, No Iterations 3
ExecutionTime = 0.41 s  ClockTime = 0 s

Time = 6

smoothSolver:  Solving for Ux, Initial residual = 0.00699526, Final residual = 0.000684612, No Iterations 4
smoothSolver:  Solving for Uy, Initial residual = 0.0775757, Final residual = 0.00724438, No Iterations 3
GAMG:  Solving for p, Initial residual = 0.126461, Final residual = 0.00762421, No Iterations 3
time step continuity errors : sum local = 0.499279, global = -0.114899, cumulative = -0.0762003
smoothSolver:  Solving for omega, Initial residual = 3.69325e-05, Final residual = 3.06007e-06, No Iterations 2
smoothSolver:  Solving for k, Initial residual = 0.077148, Final residual = 0.0035089, No Iterations 3
ExecutionTime = 0.44 s  ClockTime = 0 s

Time = 7

smoothSolver:  Solving for Ux, Initial residual = 0.00586341, Final residual = 0.000424952, No Iterations 5
smoothSolver:  Solving for Uy, Initial residual = 0.0602953, Final residual = 0.00350809, No Iterations 4
GAMG:  Solving for p, Initial residual = 0.0854877, Final residual = 0.00599572, No Iterations 2
time step continuity errors : sum local = 0.436776, global = -0.0675319, cumulative = -0.143732
smoothSolver:  Solving for omega, Initial residual = 2.23492e-05, Final residual = 2.21223e-06, No Iterations 2
smoothSolver:  Solving for k, Initial residual = 0.0661914, Final residual = 0.00321846, No Iterations 3
ExecutionTime = 0.46 s  ClockTime = 0 s

Time = 8

smoothSolver:  Solving for Ux, Initial residual = 0.00852372, Final residual = 0.000685119, No Iterations 5
smoothSolver:  Solving for Uy, Initial residual = 0.0540071, Final residual = 0.00328184, No Iterations 4
GAMG:  Solving for p, Initial residual = 0.0635667, Final residual = 0.00561361, No Iterations 1
time step continuity errors : sum local = 0.455369, global = 0.0156775, cumulative = -0.128055
smoothSolver:  Solving for omega, Initial residual = 3.05701e-05, Final residual = 1.38552e-06, No Iterations 3
smoothSolver:  Solving for k, Initial residual = 0.057947, Final residual = 0.00298236, No Iterations 3
ExecutionTime = 0.48 s  ClockTime = 0 s

Time = 9

smoothSolver:  Solving for Ux, Initial residual = 0.004528, Final residual = 0.000357209, No Iterations 5
smoothSolver:  Solving for Uy, Initial residual = 0.0409852, Final residual = 0.00260951, No Iterations 4
GAMG:  Solving for p, Initial residual = 0.0601012, Final residual = 0.00359566, No Iterations 2
time step continuity errors : sum local = 0.272178, global = 0.0434511, cumulative = -0.0846036
smoothSolver:  Solving for omega, Initial residual = 7.92567e-06, Final residual = 3.76315e-07, No Iterations 3
smoothSolver:  Solving for k, Initial residual = 0.0513078, Final residual = 0.00273617, No Iterations 3
ExecutionTime = 0.51 s  ClockTime = 0 s

Time = 10

smoothSolver:  Solving for Ux, Initial residual = 0.00674752, Final residual = 0.000574988, No Iterations 5
smoothSolver:  Solving for Uy, Initial residual = 0.0426334, Final residual = 0.00274396, No Iterations 4
GAMG:  Solving for p, Initial residual = 0.0539786, Final residual = 0.00416075, No Iterations 1
time step continuity errors : sum local = 0.285948, global = 0.045855, cumulative = -0.0387486
smoothSolver:  Solving for omega, Initial residual = 1.2165e-05, Final residual = 6.37515e-07, No Iterations 3
smoothSolver:  Solving for k, Initial residual = 0.0460507, Final residual = 0.00254146, No Iterations 3
ExecutionTime = 0.53 s  ClockTime = 0 s

Time = 11

smoothSolver:  Solving for Ux, Initial residual = 0.0102823, Final residual = 0.000896576, No Iterations 5
smoothSolver:  Solving for Uy, Initial residual = 0.0441611, Final residual = 0.00310471, No Iterations 4
GAMG:  Solving for p, Initial residual = 0.0524322, Final residual = 0.00473868, No Iterations 1
time step continuity errors : sum local = 0.308731, global = 0.0145283, cumulative = -0.0242203
smoothSolver:  Solving for omega, Initial residual = 3.0085e-05, Final residual = 1.61948e-06, No Iterations 3
smoothSolver:  Solving for k, Initial residual = 0.0414456, Final residual = 0.00235887, No Iterations 3
ExecutionTime = 0.56 s  ClockTime = 0 s

Time = 12

smoothSolver:  Solving for Ux, Initial residual = 0.00850103, Final residual = 0.00075224, No Iterations 5
smoothSolver:  Solving for Uy, Initial residual = 0.0397305, Final residual = 0.00291974, No Iterations 4
GAMG:  Solving for p, Initial residual = 0.0493923, Final residual = 0.00279827, No Iterations 2
time step continuity errors : sum local = 0.171533, global = -0.0211555, cumulative = -0.0453758
smoothSolver:  Solving for omega, Initial residual = 2.01375e-05, Final residual = 1.11839e-06, No Iterations 3
smoothSolver:  Solving for k, Initial residual = 0.0374314, Final residual = 0.00219313, No Iterations 3
ExecutionTime = 0.58 s  ClockTime = 0 s

Time = 13

smoothSolver:  Solving for Ux, Initial residual = 0.00888541, Final residual = 0.000805341, No Iterations 5
smoothSolver:  Solving for Uy, Initial residual = 0.0372162, Final residual = 0.00289918, No Iterations 4
GAMG:  Solving for p, Initial residual = 0.0480277, Final residual = 0.00299483, No Iterations 1
time step continuity errors : sum local = 0.172427, global = -0.0259173, cumulative = -0.0712931
smoothSolver:  Solving for omega, Initial residual = 2.80752e-05, Final residual = 1.64774e-06, No Iterations 3
smoothSolver:  Solving for k, Initial residual = 0.0341744, Final residual = 0.00205315, No Iterations 3
ExecutionTime = 0.61 s  ClockTime = 0 s

Time = 14

smoothSolver:  Solving for Ux, Initial residual = 0.0095135, Final residual = 0.000869333, No Iterations 5
smoothSolver:  Solving for Uy, Initial residual = 0.0350149, Final residual = 0.00284796, No Iterations 4
GAMG:  Solving for p, Initial residual = 0.0449033, Final residual = 0.00385505, No Iterations 1
time step continuity errors : sum local = 0.215952, global = -0.0327482, cumulative = -0.104041
smoothSolver:  Solving for omega, Initial residual = 3.34037e-05, Final residual = 2.00436e-06, No Iterations 3
smoothSolver:  Solving for k, Initial residual = 0.0312523, Final residual = 0.00191199, No Iterations 3
ExecutionTime = 0.63 s  ClockTime = 0 s

Time = 15

smoothSolver:  Solving for Ux, Initial residual = 0.00744205, Final residual = 0.000683424, No Iterations 5
smoothSolver:  Solving for Uy, Initial residual = 0.029688, Final residual = 0.00247124, No Iterations 4
GAMG:  Solving for p, Initial residual = 0.0422342, Final residual = 0.00169452, No Iterations 2
time step continuity errors : sum local = 0.0926616, global = 0.0123899, cumulative = -0.0916513
smoothSolver:  Solving for omega, Initial residual = 1.79426e-05, Final residual = 1.10289e-06, No Iterations 3
smoothSolver:  Solving for k, Initial residual = 0.0289172, Final residual = 0.00180097, No Iterations 3
ExecutionTime = 0.66 s  ClockTime = 0 s

Time = 16

smoothSolver:  Solving for Ux, Initial residual = 0.00782938, Final residual = 0.000728668, No Iterations 5
smoothSolver:  Solving for Uy, Initial residual = 0.0270386, Final residual = 0.00237729, No Iterations 4
GAMG:  Solving for p, Initial residual = 0.0358949, Final residual = 0.00210055, No Iterations 1
time step continuity errors : sum local = 0.115065, global = 0.0175953, cumulative = -0.0740561
smoothSolver:  Solving for omega, Initial residual = 2.66955e-05, Final residual = 1.68769e-06, No Iterations 3
smoothSolver:  Solving for k, Initial residual = 0.0268229, Final residual = 0.00169232, No Iterations 3
ExecutionTime = 0.68 s  ClockTime = 0 s

Time = 17

smoothSolver:  Solving for Ux, Initial residual = 0.00857324, Final residual = 0.000804349, No Iterations 5
smoothSolver:  Solving for Uy, Initial residual = 0.027136, Final residual = 0.00246696, No Iterations 4
GAMG:  Solving for p, Initial residual = 0.0352344, Final residual = 0.00307513, No Iterations 1
time step continuity errors : sum local = 0.162922, global = 0.0185358, cumulative = -0.0555203
smoothSolver:  Solving for omega, Initial residual = 3.42851e-05, Final residual = 2.19048e-06, No Iterations 3
smoothSolver:  Solving for k, Initial residual = 0.0249672, Final residual = 0.00159146, No Iterations 3
ExecutionTime = 0.7 s  ClockTime = 0 s

Time = 18

smoothSolver:  Solving for Ux, Initial residual = 0.00935387, Final residual = 0.000882323, No Iterations 5
smoothSolver:  Solving for Uy, Initial residual = 0.0266329, Final residual = 0.00249119, No Iterations 4
GAMG:  Solving for p, Initial residual = 0.0323986, Final residual = 0.00170528, No Iterations 2
time step continuity errors : sum local = 0.0869308, global = 0.00185107, cumulative = -0.0536692
smoothSolver:  Solving for omega, Initial residual = 5.44635e-05, Final residual = 3.53006e-06, No Iterations 3
smoothSolver:  Solving for k, Initial residual = 0.0234472, Final residual = 0.00150279, No Iterations 3
ExecutionTime = 0.73 s  ClockTime = 0 s

Time = 19

smoothSolver:  Solving for Ux, Initial residual = 0.00875058, Final residual = 0.000821932, No Iterations 5
smoothSolver:  Solving for Uy, Initial residual = 0.0249552, Final residual = 0.00240548, No Iterations 4
GAMG:  Solving for p, Initial residual = 0.0319951, Final residual = 0.00229851, No Iterations 1
time step continuity errors : sum local = 0.109145, global = -0.0161046, cumulative = -0.0697738
smoothSolver:  Solving for omega, Initial residual = 5.52334e-05, Final residual = 3.58291e-06, No Iterations 3
smoothSolver:  Solving for k, Initial residual = 0.0220818, Final residual = 0.00142499, No Iterations 3
ExecutionTime = 0.75 s  ClockTime = 0 s

Time = 20

smoothSolver:  Solving for Ux, Initial residual = 0.00877821, Final residual = 0.000827535, No Iterations 5
smoothSolver:  Solving for Uy, Initial residual = 0.0238039, Final residual = 0.00233774, No Iterations 4
GAMG:  Solving for p, Initial residual = 0.0311802, Final residual = 0.00146499, No Iterations 2
time step continuity errors : sum local = 0.0681023, global = 0.00606739, cumulative = -0.0637064
smoothSolver:  Solving for omega, Initial residual = 6.37525e-05, Final residual = 4.17032e-06, No Iterations 3
smoothSolver:  Solving for k, Initial residual = 0.0208831, Final residual = 0.00135056, No Iterations 3
ExecutionTime = 0.78 s  ClockTime = 0 s

Time = 21

smoothSolver:  Solving for Ux, Initial residual = 0.0082103, Final residual = 0.00077298, No Iterations 5
smoothSolver:  Solving for Uy, Initial residual = 0.0220021, Final residual = 0.00138646, No Iterations 5
GAMG:  Solving for p, Initial residual = 0.0283297, Final residual = 0.00214672, No Iterations 1
time step continuity errors : sum local = 0.0988682, global = 0.00229215, cumulative = -0.0614142
smoothSolver:  Solving for omega, Initial residual = 6.31256e-05, Final residual = 4.11424e-06, No Iterations 3
smoothSolver:  Solving for k, Initial residual = 0.0199285, Final residual = 0.00129108, No Iterations 3
ExecutionTime = 0.8 s  ClockTime = 0 s

Time = 22

smoothSolver:  Solving for Ux, Initial residual = 0.00792265, Final residual = 0.000747543, No Iterations 5
smoothSolver:  Solving for Uy, Initial residual = 0.0207488, Final residual = 0.00134359, No Iterations 5
GAMG:  Solving for p, Initial residual = 0.0289674, Final residual = 0.00177514, No Iterations 2
time step continuity errors : sum local = 0.0800494, global = -0.00677119, cumulative = -0.0681854
smoothSolver:  Solving for omega, Initial residual = 6.60788e-05, Final residual = 4.33268e-06, No Iterations 3
smoothSolver:  Solving for k, Initial residual = 0.0190831, Final residual = 0.00123265, No Iterations 3
ExecutionTime = 0.82 s  ClockTime = 1 s

Time = 23

smoothSolver:  Solving for Ux, Initial residual = 0.00755049, Final residual = 0.00070582, No Iterations 5
smoothSolver:  Solving for Uy, Initial residual = 0.018833, Final residual = 0.00123715, No Iterations 5
GAMG:  Solving for p, Initial residual = 0.0251633, Final residual = 0.00222826, No Iterations 1
time step continuity errors : sum local = 0.0970969, global = -0.00638032, cumulative = -0.0745658
smoothSolver:  Solving for omega, Initial residual = 7.02572e-05, Final residual = 4.56449e-06, No Iterations 3
smoothSolver:  Solving for k, Initial residual = 0.0184871, Final residual = 0.00119626, No Iterations 3
ExecutionTime = 0.85 s  ClockTime = 1 s

Time = 24

smoothSolver:  Solving for Ux, Initial residual = 0.00725293, Final residual = 0.000679406, No Iterations 5
smoothSolver:  Solving for Uy, Initial residual = 0.0178021, Final residual = 0.00119385, No Iterations 5
GAMG:  Solving for p, Initial residual = 0.02671, Final residual = 0.00186548, No Iterations 2
time step continuity errors : sum local = 0.0801197, global = -0.00233277, cumulative = -0.0768985
smoothSolver:  Solving for omega, Initial residual = 7.22349e-05, Final residual = 4.71554e-06, No Iterations 3
smoothSolver:  Solving for k, Initial residual = 0.0178879, Final residual = 0.00115432, No Iterations 3
ExecutionTime = 0.87 s  ClockTime = 1 s

Time = 25

smoothSolver:  Solving for Ux, Initial residual = 0.00681447, Final residual = 0.000631629, No Iterations 5
smoothSolver:  Solving for Uy, Initial residual = 0.0168352, Final residual = 0.00115834, No Iterations 5
GAMG:  Solving for p, Initial residual = 0.0243027, Final residual = 0.00210412, No Iterations 1
time step continuity errors : sum local = 0.0876523, global = -0.000697871, cumulative = -0.0775964
smoothSolver:  Solving for omega, Initial residual = 7.22639e-05, Final residual = 4.6553e-06, No Iterations 3
smoothSolver:  Solving for k, Initial residual = 0.0174521, Final residual = 0.00112295, No Iterations 3
ExecutionTime = 0.9 s  ClockTime = 1 s

Time = 26

smoothSolver:  Solving for Ux, Initial residual = 0.00656574, Final residual = 0.00060882, No Iterations 5
smoothSolver:  Solving for Uy, Initial residual = 0.0162908, Final residual = 0.00114278, No Iterations 5
GAMG:  Solving for p, Initial residual = 0.0254731, Final residual = 0.00167354, No Iterations 2
time step continuity errors : sum local = 0.0686821, global = -0.00748037, cumulative = -0.0850768
smoothSolver:  Solving for omega, Initial residual = 8.04522e-05, Final residual = 5.19522e-06, No Iterations 3
smoothSolver:  Solving for k, Initial residual = 0.0171682, Final residual = 0.00110415, No Iterations 3
ExecutionTime = 0.92 s  ClockTime = 1 s

Time = 27

smoothSolver:  Solving for Ux, Initial residual = 0.00626102, Final residual = 0.000573825, No Iterations 5
smoothSolver:  Solving for Uy, Initial residual = 0.0154629, Final residual = 0.00109596, No Iterations 5
GAMG:  Solving for p, Initial residual = 0.0230432, Final residual = 0.00225152, No Iterations 1
time step continuity errors : sum local = 0.090193, global = -0.0021093, cumulative = -0.0871861
smoothSolver:  Solving for omega, Initial residual = 8.4774e-05, Final residual = 5.3909e-06, No Iterations 3
smoothSolver:  Solving for k, Initial residual = 0.0168958, Final residual = 0.00108502, No Iterations 3
ExecutionTime = 0.95 s  ClockTime = 1 s

Time = 28

smoothSolver:  Solving for Ux, Initial residual = 0.00602726, Final residual = 0.000552668, No Iterations 5
smoothSolver:  Solving for Uy, Initial residual = 0.0149878, Final residual = 0.00105982, No Iterations 5
GAMG:  Solving for p, Initial residual = 0.024029, Final residual = 0.00199195, No Iterations 2
time step continuity errors : sum local = 0.0794042, global = -0.00879565, cumulative = -0.0959817
smoothSolver:  Solving for omega, Initial residual = 8.74852e-05, Final residual = 5.57254e-06, No Iterations 3
smoothSolver:  Solving for k, Initial residual = 0.0166969, Final residual = 0.00107414, No Iterations 3
ExecutionTime = 0.97 s  ClockTime = 1 s

Time = 29

smoothSolver:  Solving for Ux, Initial residual = 0.00550917, Final residual = 0.000496317, No Iterations 5
smoothSolver:  Solving for Uy, Initial residual = 0.013762, Final residual = 0.000995453, No Iterations 5
GAMG:  Solving for p, Initial residual = 0.0224301, Final residual = 0.00161745, No Iterations 2
time step continuity errors : sum local = 0.0629152, global = 0.00468392, cumulative = -0.0912978
smoothSolver:  Solving for omega, Initial residual = 7.87612e-05, Final residual = 4.93025e-06, No Iterations 3
smoothSolver:  Solving for k, Initial residual = 0.0166234, Final residual = 0.00107447, No Iterations 3
ExecutionTime = 1 s  ClockTime = 1 s

Time = 30

smoothSolver:  Solving for Ux, Initial residual = 0.0054158, Final residual = 0.000484866, No Iterations 5
smoothSolver:  Solving for Uy, Initial residual = 0.0132542, Final residual = 0.000961594, No Iterations 5
GAMG:  Solving for p, Initial residual = 0.0226268, Final residual = 0.00153026, No Iterations 2
time step continuity errors : sum local = 0.0591927, global = -0.00279063, cumulative = -0.0940884
smoothSolver:  Solving for omega, Initial residual = 8.54844e-05, Final residual = 5.32577e-06, No Iterations 3
smoothSolver:  Solving for k, Initial residual = 0.0165614, Final residual = 0.00106781, No Iterations 3
ExecutionTime = 1.02 s  ClockTime = 1 s

Time = 31

smoothSolver:  Solving for Ux, Initial residual = 0.00492551, Final residual = 0.000437028, No Iterations 5
smoothSolver:  Solving for Uy, Initial residual = 0.012406, Final residual = 0.000915001, No Iterations 5
GAMG:  Solving for p, Initial residual = 0.0216042, Final residual = 0.00174394, No Iterations 2
time step continuity errors : sum local = 0.0661398, global = -0.00759337, cumulative = -0.101682
smoothSolver:  Solving for omega, Initial residual = 7.39184e-05, Final residual = 4.54964e-06, No Iterations 3
smoothSolver:  Solving for k, Initial residual = 0.0165862, Final residual = 0.00107174, No Iterations 3
ExecutionTime = 1.05 s  ClockTime = 1 s

Time = 32

smoothSolver:  Solving for Ux, Initial residual = 0.00486828, Final residual = 0.000426969, No Iterations 5
smoothSolver:  Solving for Uy, Initial residual = 0.0115688, Final residual = 0.00085734, No Iterations 5
GAMG:  Solving for p, Initial residual = 0.0209941, Final residual = 0.00168165, No Iterations 2
time step continuity errors : sum local = 0.062898, global = -0.00752044, cumulative = -0.109202
smoothSolver:  Solving for omega, Initial residual = 8.16366e-05, Final residual = 4.96141e-06, No Iterations 3
smoothSolver:  Solving for k, Initial residual = 0.0167192, Final residual = 0.00107866, No Iterations 3
ExecutionTime = 1.07 s  ClockTime = 1 s

Time = 33

smoothSolver:  Solving for Ux, Initial residual = 0.00445479, Final residual = 0.000385792, No Iterations 5
smoothSolver:  Solving for Uy, Initial residual = 0.0106474, Final residual = 0.000797029, No Iterations 5
GAMG:  Solving for p, Initial residual = 0.0199376, Final residual = 0.00156426, No Iterations 2
time step continuity errors : sum local = 0.0579498, global = 0.00199254, cumulative = -0.10721
smoothSolver:  Solving for omega, Initial residual = 7.07707e-05, Final residual = 4.2459e-06, No Iterations 3
smoothSolver:  Solving for k, Initial residual = 0.0169447, Final residual = 0.0011044, No Iterations 3
ExecutionTime = 1.1 s  ClockTime = 1 s

Time = 34

smoothSolver:  Solving for Ux, Initial residual = 0.00431128, Final residual = 0.000369477, No Iterations 5
smoothSolver:  Solving for Uy, Initial residual = 0.0100721, Final residual = 0.00075796, No Iterations 5
GAMG:  Solving for p, Initial residual = 0.019546, Final residual = 0.00151413, No Iterations 2
time step continuity errors : sum local = 0.0560357, global = -0.0046262, cumulative = -0.111836
smoothSolver:  Solving for omega, Initial residual = 6.98332e-05, Final residual = 4.12661e-06, No Iterations 3
smoothSolver:  Solving for k, Initial residual = 0.0172465, Final residual = 0.00112973, No Iterations 3
ExecutionTime = 1.13 s  ClockTime = 1 s

Time = 35

smoothSolver:  Solving for Ux, Initial residual = 0.00394115, Final residual = 0.000333016, No Iterations 5
smoothSolver:  Solving for Uy, Initial residual = 0.00933688, Final residual = 0.000707835, No Iterations 5
GAMG:  Solving for p, Initial residual = 0.0189765, Final residual = 0.00172433, No Iterations 2
time step continuity errors : sum local = 0.0625497, global = -0.00701085, cumulative = -0.118847
smoothSolver:  Solving for omega, Initial residual = 6.12534e-05, Final residual = 3.55497e-06, No Iterations 3
smoothSolver:  Solving for k, Initial residual = 0.0176372, Final residual = 0.0011612, No Iterations 3
ExecutionTime = 1.15 s  ClockTime = 1 s

Time = 36

smoothSolver:  Solving for Ux, Initial residual = 0.00393893, Final residual = 0.000328752, No Iterations 5
smoothSolver:  Solving for Uy, Initial residual = 0.00894359, Final residual = 0.000680021, No Iterations 5
GAMG:  Solving for p, Initial residual = 0.0189097, Final residual = 0.00167227, No Iterations 2
time step continuity errors : sum local = 0.0600956, global = -0.00830356, cumulative = -0.12715
smoothSolver:  Solving for omega, Initial residual = 6.76544e-05, Final residual = 3.85427e-06, No Iterations 3
smoothSolver:  Solving for k, Initial residual = 0.0180315, Final residual = 0.00119162, No Iterations 3
ExecutionTime = 1.18 s  ClockTime = 1 s

Time = 37

smoothSolver:  Solving for Ux, Initial residual = 0.00362934, Final residual = 0.000298593, No Iterations 5
smoothSolver:  Solving for Uy, Initial residual = 0.00823483, Final residual = 0.000629914, No Iterations 5
GAMG:  Solving for p, Initial residual = 0.0179657, Final residual = 0.00174298, No Iterations 2
time step continuity errors : sum local = 0.0619802, global = -0.00549545, cumulative = -0.132646
smoothSolver:  Solving for omega, Initial residual = 5.66855e-05, Final residual = 3.16325e-06, No Iterations 3
smoothSolver:  Solving for k, Initial residual = 0.0185555, Final residual = 0.00123775, No Iterations 3
ExecutionTime = 1.2 s  ClockTime = 1 s

Time = 38

smoothSolver:  Solving for Ux, Initial residual = 0.00353846, Final residual = 0.000287296, No Iterations 5
smoothSolver:  Solving for Uy, Initial residual = 0.00779458, Final residual = 0.000599787, No Iterations 5
GAMG:  Solving for p, Initial residual = 0.0177527, Final residual = 0.00143413, No Iterations 2
time step continuity errors : sum local = 0.0505874, global = -0.00669894, cumulative = -0.139345
smoothSolver:  Solving for omega, Initial residual = 5.76055e-05, Final residual = 3.13757e-06, No Iterations 3
smoothSolver:  Solving for k, Initial residual = 0.0190227, Final residual = 0.00126838, No Iterations 3
ExecutionTime = 1.23 s  ClockTime = 1 s

Time = 39

smoothSolver:  Solving for Ux, Initial residual = 0.00338518, Final residual = 0.000271153, No Iterations 5
smoothSolver:  Solving for Uy, Initial residual = 0.00729411, Final residual = 0.000563333, No Iterations 5
GAMG:  Solving for p, Initial residual = 0.0172397, Final residual = 0.000647138, No Iterations 3
time step continuity errors : sum local = 0.0225526, global = 0.0010739, cumulative = -0.138271
smoothSolver:  Solving for omega, Initial residual = 5.4388e-05, Final residual = 2.88471e-06, No Iterations 3
smoothSolver:  Solving for k, Initial residual = 0.0195068, Final residual = 0.00130786, No Iterations 3
ExecutionTime = 1.27 s  ClockTime = 1 s

Time = 40

smoothSolver:  Solving for Ux, Initial residual = 0.00314853, Final residual = 0.000248515, No Iterations 5
smoothSolver:  Solving for Uy, Initial residual = 0.00668779, Final residual = 0.000519711, No Iterations 5
GAMG:  Solving for p, Initial residual = 0.0168456, Final residual = 0.0015566, No Iterations 2
time step continuity errors : sum local = 0.0539817, global = -0.00320403, cumulative = -0.141475
smoothSolver:  Solving for omega, Initial residual = 4.72552e-05, Final residual = 2.43412e-06, No Iterations 3
smoothSolver:  Solving for k, Initial residual = 0.0198951, Final residual = 0.00132954, No Iterations 3
ExecutionTime = 1.3 s  ClockTime = 1 s

Time = 41

smoothSolver:  Solving for Ux, Initial residual = 0.00309868, Final residual = 0.000240978, No Iterations 5
smoothSolver:  Solving for Uy, Initial residual = 0.00637681, Final residual = 0.000498887, No Iterations 5
GAMG:  Solving for p, Initial residual = 0.0168018, Final residual = 0.00162211, No Iterations 2
time step continuity errors : sum local = 0.0556807, global = -0.00397028, cumulative = -0.145445
smoothSolver:  Solving for omega, Initial residual = 4.78958e-05, Final residual = 2.38465e-06, No Iterations 3
smoothSolver:  Solving for k, Initial residual = 0.0202842, Final residual = 0.00135688, No Iterations 3
ExecutionTime = 1.33 s  ClockTime = 1 s

Time = 42

smoothSolver:  Solving for Ux, Initial residual = 0.00287947, Final residual = 0.000220686, No Iterations 5
smoothSolver:  Solving for Uy, Initial residual = 0.00584819, Final residual = 0.000459434, No Iterations 5
GAMG:  Solving for p, Initial residual = 0.0159658, Final residual = 0.000520863, No Iterations 3
time step continuity errors : sum local = 0.0177454, global = 0.00080788, cumulative = -0.144637
smoothSolver:  Solving for omega, Initial residual = 3.9697e-05, Final residual = 1.90485e-06, No Iterations 3
smoothSolver:  Solving for k, Initial residual = 0.0206192, Final residual = 0.0013869, No Iterations 3
ExecutionTime = 1.36 s  ClockTime = 1 s

Time = 43

smoothSolver:  Solving for Ux, Initial residual = 0.00272014, Final residual = 0.000205803, No Iterations 5
smoothSolver:  Solving for Uy, Initial residual = 0.00544743, Final residual = 0.000428755, No Iterations 5
GAMG:  Solving for p, Initial residual = 0.0153004, Final residual = 0.00138909, No Iterations 2
time step continuity errors : sum local = 0.0471698, global = -0.00535009, cumulative = -0.149987
smoothSolver:  Solving for omega, Initial residual = 3.08078e-05, Final residual = 1.42049e-06, No Iterations 3
smoothSolver:  Solving for k, Initial residual = 0.0208874, Final residual = 0.00140661, No Iterations 3
ExecutionTime = 1.39 s  ClockTime = 1 s

Time = 44

smoothSolver:  Solving for Ux, Initial residual = 0.00275054, Final residual = 0.000205356, No Iterations 5
smoothSolver:  Solving for Uy, Initial residual = 0.0052826, Final residual = 0.000418844, No Iterations 5
GAMG:  Solving for p, Initial residual = 0.015521, Final residual = 0.000570733, No Iterations 3
time step continuity errors : sum local = 0.0191989, global = 0.000821332, cumulative = -0.149166
smoothSolver:  Solving for omega, Initial residual = 4.07522e-05, Final residual = 1.80198e-06, No Iterations 3
smoothSolver:  Solving for k, Initial residual = 0.0210624, Final residual = 0.00141667, No Iterations 3
ExecutionTime = 1.42 s  ClockTime = 1 s

Time = 45

smoothSolver:  Solving for Ux, Initial residual = 0.00254006, Final residual = 0.000186437, No Iterations 5
smoothSolver:  Solving for Uy, Initial residual = 0.00481879, Final residual = 0.000383301, No Iterations 5
GAMG:  Solving for p, Initial residual = 0.0146958, Final residual = 0.00115989, No Iterations 2
time step continuity errors : sum local = 0.0388555, global = -0.00343042, cumulative = -0.152596
smoothSolver:  Solving for omega, Initial residual = 3.27814e-05, Final residual = 1.37966e-06, No Iterations 3
smoothSolver:  Solving for k, Initial residual = 0.0211999, Final residual = 0.00142969, No Iterations 3
ExecutionTime = 1.45 s  ClockTime = 1 s

Time = 46

smoothSolver:  Solving for Ux, Initial residual = 0.00254908, Final residual = 0.000185176, No Iterations 5
smoothSolver:  Solving for Uy, Initial residual = 0.00465484, Final residual = 0.000374881, No Iterations 5
GAMG:  Solving for p, Initial residual = 0.0148084, Final residual = 0.00060353, No Iterations 3
time step continuity errors : sum local = 0.0200452, global = 0.000951128, cumulative = -0.151645
smoothSolver:  Solving for omega, Initial residual = 3.63713e-05, Final residual = 3.52722e-06, No Iterations 2
smoothSolver:  Solving for k, Initial residual = 0.0212677, Final residual = 0.00142977, No Iterations 3
ExecutionTime = 1.47 s  ClockTime = 1 s

Time = 47

smoothSolver:  Solving for Ux, Initial residual = 0.00240293, Final residual = 0.000171868, No Iterations 5
smoothSolver:  Solving for Uy, Initial residual = 0.00428343, Final residual = 0.000346615, No Iterations 5
GAMG:  Solving for p, Initial residual = 0.0142178, Final residual = 0.00117745, No Iterations 2
time step continuity errors : sum local = 0.0388752, global = -0.00418181, cumulative = -0.155827
smoothSolver:  Solving for omega, Initial residual = 3.25603e-05, Final residual = 3.04967e-06, No Iterations 2
smoothSolver:  Solving for k, Initial residual = 0.0213086, Final residual = 0.00143799, No Iterations 3
ExecutionTime = 1.5 s  ClockTime = 1 s

Time = 48

smoothSolver:  Solving for Ux, Initial residual = 0.00234457, Final residual = 0.000165656, No Iterations 5
smoothSolver:  Solving for Uy, Initial residual = 0.00408217, Final residual = 0.000334759, No Iterations 5
GAMG:  Solving for p, Initial residual = 0.0143739, Final residual = 0.000540115, No Iterations 3
time step continuity errors : sum local = 0.0177084, global = 0.000824456, cumulative = -0.155003
smoothSolver:  Solving for omega, Initial residual = 3.22755e-05, Final residual = 2.98263e-06, No Iterations 2
smoothSolver:  Solving for k, Initial residual = 0.0212791, Final residual = 0.00144094, No Iterations 3
ExecutionTime = 1.53 s  ClockTime = 1 s

Time = 49

smoothSolver:  Solving for Ux, Initial residual = 0.00229387, Final residual = 0.000159911, No Iterations 5
smoothSolver:  Solving for Uy, Initial residual = 0.00384319, Final residual = 0.000314741, No Iterations 5
GAMG:  Solving for p, Initial residual = 0.0139768, Final residual = 0.00126913, No Iterations 1
time step continuity errors : sum local = 0.0414007, global = 0.00452628, cumulative = -0.150476
smoothSolver:  Solving for omega, Initial residual = 3.42499e-05, Final residual = 3.10939e-06, No Iterations 2
smoothSolver:  Solving for k, Initial residual = 0.0211721, Final residual = 0.00143784, No Iterations 3
ExecutionTime = 1.55 s  ClockTime = 1 s

Time = 50

smoothSolver:  Solving for Ux, Initial residual = 0.00217866, Final residual = 0.000150616, No Iterations 5
smoothSolver:  Solving for Uy, Initial residual = 0.00365185, Final residual = 0.000301448, No Iterations 5
GAMG:  Solving for p, Initial residual = 0.0140314, Final residual = 0.000457982, No Iterations 3
time step continuity errors : sum local = 0.014901, global = 0.0011247, cumulative = -0.149352
smoothSolver:  Solving for omega, Initial residual = 3.03861e-05, Final residual = 2.81268e-06, No Iterations 2
smoothSolver:  Solving for k, Initial residual = 0.0210229, Final residual = 0.00142734, No Iterations 3
ExecutionTime = 1.58 s  ClockTime = 1 s

Time = 51

smoothSolver:  Solving for Ux, Initial residual = 0.00214202, Final residual = 0.000145103, No Iterations 5
smoothSolver:  Solving for Uy, Initial residual = 0.00347489, Final residual = 0.000285485, No Iterations 5
GAMG:  Solving for p, Initial residual = 0.0129965, Final residual = 0.00107036, No Iterations 1
time step continuity errors : sum local = 0.0343151, global = 0.00160517, cumulative = -0.147746
smoothSolver:  Solving for omega, Initial residual = 3.30173e-05, Final residual = 3.07817e-06, No Iterations 2
smoothSolver:  Solving for k, Initial residual = 0.0208541, Final residual = 0.00142555, No Iterations 3
ExecutionTime = 1.61 s  ClockTime = 1 s

Time = 52

smoothSolver:  Solving for Ux, Initial residual = 0.0020274, Final residual = 0.000136284, No Iterations 5
smoothSolver:  Solving for Uy, Initial residual = 0.00327943, Final residual = 0.00027162, No Iterations 5
GAMG:  Solving for p, Initial residual = 0.0130897, Final residual = 0.00128142, No Iterations 2
time step continuity errors : sum local = 0.0409958, global = -0.00483975, cumulative = -0.152586
smoothSolver:  Solving for omega, Initial residual = 3.00794e-05, Final residual = 2.90845e-06, No Iterations 2
smoothSolver:  Solving for k, Initial residual = 0.0206263, Final residual = 0.00141783, No Iterations 3
ExecutionTime = 1.63 s  ClockTime = 1 s

Time = 53

smoothSolver:  Solving for Ux, Initial residual = 0.0020058, Final residual = 0.000133039, No Iterations 5
smoothSolver:  Solving for Uy, Initial residual = 0.00316527, Final residual = 0.000261444, No Iterations 5
GAMG:  Solving for p, Initial residual = 0.0130482, Final residual = 0.000504933, No Iterations 3
time step continuity errors : sum local = 0.015975, global = 0.000942218, cumulative = -0.151644
smoothSolver:  Solving for omega, Initial residual = 3.21012e-05, Final residual = 3.13605e-06, No Iterations 2
smoothSolver:  Solving for k, Initial residual = 0.0203686, Final residual = 0.00140622, No Iterations 3
ExecutionTime = 1.66 s  ClockTime = 1 s

Time = 54

smoothSolver:  Solving for Ux, Initial residual = 0.00195986, Final residual = 0.000128358, No Iterations 5
smoothSolver:  Solving for Uy, Initial residual = 0.00318095, Final residual = 0.000251534, No Iterations 5
GAMG:  Solving for p, Initial residual = 0.0129979, Final residual = 0.000784223, No Iterations 2
time step continuity errors : sum local = 0.0246546, global = -0.000238254, cumulative = -0.151882
smoothSolver:  Solving for omega, Initial residual = 3.28773e-05, Final residual = 1.33536e-06, No Iterations 3
smoothSolver:  Solving for k, Initial residual = 0.0200754, Final residual = 0.00139293, No Iterations 3
ExecutionTime = 1.69 s  ClockTime = 1 s

Time = 55

smoothSolver:  Solving for Ux, Initial residual = 0.00187179, Final residual = 0.000121695, No Iterations 5
smoothSolver:  Solving for Uy, Initial residual = 0.00288899, Final residual = 0.000239601, No Iterations 5
GAMG:  Solving for p, Initial residual = 0.0128569, Final residual = 0.00113895, No Iterations 2
time step continuity errors : sum local = 0.035621, global = -0.00158019, cumulative = -0.153462
smoothSolver:  Solving for omega, Initial residual = 2.96427e-05, Final residual = 1.21481e-06, No Iterations 3
smoothSolver:  Solving for k, Initial residual = 0.019705, Final residual = 0.00137662, No Iterations 3
ExecutionTime = 1.72 s  ClockTime = 1 s

Time = 56

smoothSolver:  Solving for Ux, Initial residual = 0.00184381, Final residual = 0.000118877, No Iterations 5
smoothSolver:  Solving for Uy, Initial residual = 0.00275207, Final residual = 0.000231008, No Iterations 5
GAMG:  Solving for p, Initial residual = 0.0124965, Final residual = 0.000540052, No Iterations 3
time step continuity errors : sum local = 0.0167701, global = 0.001221, cumulative = -0.152241
smoothSolver:  Solving for omega, Initial residual = 3.04505e-05, Final residual = 1.25577e-06, No Iterations 3
smoothSolver:  Solving for k, Initial residual = 0.0192945, Final residual = 0.00135769, No Iterations 3
ExecutionTime = 1.75 s  ClockTime = 1 s

Time = 57

smoothSolver:  Solving for Ux, Initial residual = 0.0018119, Final residual = 0.000115554, No Iterations 5
smoothSolver:  Solving for Uy, Initial residual = 0.00261215, Final residual = 0.000222755, No Iterations 5
GAMG:  Solving for p, Initial residual = 0.0122891, Final residual = 0.00111035, No Iterations 1
time step continuity errors : sum local = 0.0342703, global = 0.00529387, cumulative = -0.146948
smoothSolver:  Solving for omega, Initial residual = 3.1241e-05, Final residual = 1.29866e-06, No Iterations 3
smoothSolver:  Solving for k, Initial residual = 0.0188655, Final residual = 0.00133634, No Iterations 3
ExecutionTime = 1.77 s  ClockTime = 1 s

Time = 58

smoothSolver:  Solving for Ux, Initial residual = 0.00175795, Final residual = 0.0001753, No Iterations 4
smoothSolver:  Solving for Uy, Initial residual = 0.00247837, Final residual = 0.000214324, No Iterations 5
GAMG:  Solving for p, Initial residual = 0.0123119, Final residual = 0.000587322, No Iterations 3
time step continuity errors : sum local = 0.0181027, global = 0.00239951, cumulative = -0.144548
smoothSolver:  Solving for omega, Initial residual = 2.9628e-05, Final residual = 1.22494e-06, No Iterations 3
smoothSolver:  Solving for k, Initial residual = 0.0183854, Final residual = 0.00131111, No Iterations 3
ExecutionTime = 1.8 s  ClockTime = 1 s

Time = 59

smoothSolver:  Solving for Ux, Initial residual = 0.00173485, Final residual = 0.000171217, No Iterations 4
smoothSolver:  Solving for Uy, Initial residual = 0.00233764, Final residual = 0.000202041, No Iterations 5
GAMG:  Solving for p, Initial residual = 0.0119282, Final residual = 0.000911978, No Iterations 1
time step continuity errors : sum local = 0.0278094, global = 0.00450873, cumulative = -0.140039
smoothSolver:  Solving for omega, Initial residual = 3.03648e-05, Final residual = 1.26194e-06, No Iterations 3
smoothSolver:  Solving for k, Initial residual = 0.017913, Final residual = 0.00128693, No Iterations 3
ExecutionTime = 1.82 s  ClockTime = 2 s

Time = 60

smoothSolver:  Solving for Ux, Initial residual = 0.00168395, Final residual = 0.00016535, No Iterations 4
smoothSolver:  Solving for Uy, Initial residual = 0.0022561, Final residual = 0.000194225, No Iterations 5
GAMG:  Solving for p, Initial residual = 0.0119259, Final residual = 0.000516383, No Iterations 3
time step continuity errors : sum local = 0.0157116, global = 0.0027203, cumulative = -0.137319
smoothSolver:  Solving for omega, Initial residual = 2.89237e-05, Final residual = 1.16867e-06, No Iterations 3
smoothSolver:  Solving for k, Initial residual = 0.017413, Final residual = 0.00125931, No Iterations 3
ExecutionTime = 1.85 s  ClockTime = 2 s

Time = 61

smoothSolver:  Solving for Ux, Initial residual = 0.00165475, Final residual = 0.000160946, No Iterations 4
smoothSolver:  Solving for Uy, Initial residual = 0.00212978, Final residual = 0.00018929, No Iterations 5
GAMG:  Solving for p, Initial residual = 0.0113175, Final residual = 0.000895379, No Iterations 1
time step continuity errors : sum local = 0.0270085, global = 0.00511406, cumulative = -0.132205
smoothSolver:  Solving for omega, Initial residual = 2.81356e-05, Final residual = 1.14131e-06, No Iterations 3
smoothSolver:  Solving for k, Initial residual = 0.0168798, Final residual = 0.00123022, No Iterations 3
ExecutionTime = 1.88 s  ClockTime = 2 s

Time = 62

smoothSolver:  Solving for Ux, Initial residual = 0.00162928, Final residual = 0.000157606, No Iterations 4
smoothSolver:  Solving for Uy, Initial residual = 0.00210337, Final residual = 0.000185826, No Iterations 5
GAMG:  Solving for p, Initial residual = 0.0118558, Final residual = 0.000628774, No Iterations 3
time step continuity errors : sum local = 0.0189509, global = 0.00348479, cumulative = -0.12872
smoothSolver:  Solving for omega, Initial residual = 2.89231e-05, Final residual = 2.84171e-06, No Iterations 2
smoothSolver:  Solving for k, Initial residual = 0.0165668, Final residual = 0.00120237, No Iterations 3
ExecutionTime = 1.91 s  ClockTime = 2 s

Time = 63

smoothSolver:  Solving for Ux, Initial residual = 0.00158755, Final residual = 0.00015175, No Iterations 4
smoothSolver:  Solving for Uy, Initial residual = 0.00321373, Final residual = 0.00029729, No Iterations 4
GAMG:  Solving for p, Initial residual = 0.0112508, Final residual = 0.000977196, No Iterations 1
time step continuity errors : sum local = 0.0292056, global = 0.00557281, cumulative = -0.123147
smoothSolver:  Solving for omega, Initial residual = 2.62063e-05, Final residual = 2.59815e-06, No Iterations 2
smoothSolver:  Solving for k, Initial residual = 0.0172719, Final residual = 0.00117867, No Iterations 3
ExecutionTime = 1.93 s  ClockTime = 2 s

Time = 64

smoothSolver:  Solving for Ux, Initial residual = 0.00156267, Final residual = 0.000148553, No Iterations 4
smoothSolver:  Solving for Uy, Initial residual = 0.00202459, Final residual = 0.000186807, No Iterations 5
GAMG:  Solving for p, Initial residual = 0.0109008, Final residual = 0.000576668, No Iterations 3
time step continuity errors : sum local = 0.0172177, global = 0.00365003, cumulative = -0.119497
smoothSolver:  Solving for omega, Initial residual = 2.70949e-05, Final residual = 2.62589e-06, No Iterations 2
smoothSolver:  Solving for k, Initial residual = 0.0154245, Final residual = 0.00114056, No Iterations 3
ExecutionTime = 1.96 s  ClockTime = 2 s

Time = 65

smoothSolver:  Solving for Ux, Initial residual = 0.00153252, Final residual = 0.000144266, No Iterations 4
smoothSolver:  Solving for Uy, Initial residual = 0.00195745, Final residual = 0.000182168, No Iterations 5
GAMG:  Solving for p, Initial residual = 0.0102007, Final residual = 0.000941976, No Iterations 1
time step continuity errors : sum local = 0.027928, global = 0.00572409, cumulative = -0.113773
smoothSolver:  Solving for omega, Initial residual = 2.53171e-05, Final residual = 2.50162e-06, No Iterations 2
smoothSolver:  Solving for k, Initial residual = 0.0148326, Final residual = 0.00110999, No Iterations 3
ExecutionTime = 1.98 s  ClockTime = 2 s

Time = 66

smoothSolver:  Solving for Ux, Initial residual = 0.0014982, Final residual = 0.000140202, No Iterations 4
smoothSolver:  Solving for Uy, Initial residual = 0.00185823, Final residual = 0.000176284, No Iterations 5
GAMG:  Solving for p, Initial residual = 0.0104943, Final residual = 0.000507915, No Iterations 3
time step continuity errors : sum local = 0.0150342, global = 0.00366421, cumulative = -0.110109
smoothSolver:  Solving for omega, Initial residual = 2.43784e-05, Final residual = 2.36655e-06, No Iterations 2
smoothSolver:  Solving for k, Initial residual = 0.0142942, Final residual = 0.00107871, No Iterations 3
ExecutionTime = 2.01 s  ClockTime = 2 s

Time = 67

smoothSolver:  Solving for Ux, Initial residual = 0.00149198, Final residual = 0.000138489, No Iterations 4
smoothSolver:  Solving for Uy, Initial residual = 0.00184315, Final residual = 0.000175447, No Iterations 5
GAMG:  Solving for p, Initial residual = 0.00973815, Final residual = 0.000896148, No Iterations 1
time step continuity errors : sum local = 0.026338, global = 0.00558543, cumulative = -0.104524
smoothSolver:  Solving for omega, Initial residual = 2.49789e-05, Final residual = 2.4689e-06, No Iterations 2
smoothSolver:  Solving for k, Initial residual = 0.013798, Final residual = 0.00104879, No Iterations 3
ExecutionTime = 2.04 s  ClockTime = 2 s

Time = 68

smoothSolver:  Solving for Ux, Initial residual = 0.00143963, Final residual = 0.000132731, No Iterations 4
smoothSolver:  Solving for Uy, Initial residual = 0.00189069, Final residual = 0.000169367, No Iterations 5
GAMG:  Solving for p, Initial residual = 0.0099101, Final residual = 0.000499701, No Iterations 3
time step continuity errors : sum local = 0.0146656, global = 0.00351595, cumulative = -0.101008
smoothSolver:  Solving for omega, Initial residual = 2.12859e-05, Final residual = 2.07234e-06, No Iterations 2
smoothSolver:  Solving for k, Initial residual = 0.0133262, Final residual = 0.0010207, No Iterations 3
ExecutionTime = 2.07 s  ClockTime = 2 s

Time = 69

smoothSolver:  Solving for Ux, Initial residual = 0.00143838, Final residual = 0.000131817, No Iterations 4
smoothSolver:  Solving for Uy, Initial residual = 0.00176752, Final residual = 0.000170816, No Iterations 5
GAMG:  Solving for p, Initial residual = 0.0093066, Final residual = 0.000863427, No Iterations 1
time step continuity errors : sum local = 0.0251693, global = 0.00501931, cumulative = -0.0959884
smoothSolver:  Solving for omega, Initial residual = 2.23137e-05, Final residual = 2.21554e-06, No Iterations 2
smoothSolver:  Solving for k, Initial residual = 0.0129072, Final residual = 0.000994357, No Iterations 3
ExecutionTime = 2.09 s  ClockTime = 2 s

Time = 70

smoothSolver:  Solving for Ux, Initial residual = 0.00140278, Final residual = 0.000127869, No Iterations 4
smoothSolver:  Solving for Uy, Initial residual = 0.00170065, Final residual = 0.000165773, No Iterations 5
GAMG:  Solving for p, Initial residual = 0.00940202, Final residual = 0.000458273, No Iterations 3
time step continuity errors : sum local = 0.0133381, global = 0.00300994, cumulative = -0.0929784
smoothSolver:  Solving for omega, Initial residual = 2.04432e-05, Final residual = 2.01313e-06, No Iterations 2
smoothSolver:  Solving for k, Initial residual = 0.0124951, Final residual = 0.000969258, No Iterations 3
ExecutionTime = 2.12 s  ClockTime = 2 s

Time = 71

smoothSolver:  Solving for Ux, Initial residual = 0.00139744, Final residual = 0.000126611, No Iterations 4
smoothSolver:  Solving for Uy, Initial residual = 0.00177773, Final residual = 0.000165928, No Iterations 5
GAMG:  Solving for p, Initial residual = 0.0085788, Final residual = 0.000744194, No Iterations 1
time step continuity errors : sum local = 0.0215219, global = 0.00382034, cumulative = -0.0891581
smoothSolver:  Solving for omega, Initial residual = 2.08609e-05, Final residual = 8.40382e-07, No Iterations 3
smoothSolver:  Solving for k, Initial residual = 0.0120885, Final residual = 0.000945545, No Iterations 3
ExecutionTime = 2.14 s  ClockTime = 2 s

Time = 72

smoothSolver:  Solving for Ux, Initial residual = 0.00135238, Final residual = 0.000121958, No Iterations 4
smoothSolver:  Solving for Uy, Initial residual = 0.00161368, Final residual = 0.000160918, No Iterations 5
GAMG:  Solving for p, Initial residual = 0.00865859, Final residual = 0.000750113, No Iterations 2
time step continuity errors : sum local = 0.0216548, global = -5.79292e-05, cumulative = -0.089216
smoothSolver:  Solving for omega, Initial residual = 1.77712e-05, Final residual = 1.77645e-06, No Iterations 2
smoothSolver:  Solving for k, Initial residual = 0.0117336, Final residual = 0.000922964, No Iterations 3
ExecutionTime = 2.16 s  ClockTime = 2 s

Time = 73

smoothSolver:  Solving for Ux, Initial residual = 0.00135046, Final residual = 0.00012127, No Iterations 4
smoothSolver:  Solving for Uy, Initial residual = 0.00161478, Final residual = 0.00010529, No Iterations 6
GAMG:  Solving for p, Initial residual = 0.00818174, Final residual = 0.000785345, No Iterations 2
time step continuity errors : sum local = 0.0225446, global = -0.00172075, cumulative = -0.0909368
smoothSolver:  Solving for omega, Initial residual = 1.87202e-05, Final residual = 7.63335e-07, No Iterations 3
smoothSolver:  Solving for k, Initial residual = 0.0113846, Final residual = 0.000901469, No Iterations 3
ExecutionTime = 2.19 s  ClockTime = 2 s

Time = 74

smoothSolver:  Solving for Ux, Initial residual = 0.00134334, Final residual = 0.000120095, No Iterations 4
smoothSolver:  Solving for Uy, Initial residual = 0.00155238, Final residual = 0.000101957, No Iterations 6
GAMG:  Solving for p, Initial residual = 0.00797102, Final residual = 0.000373346, No Iterations 2
time step continuity errors : sum local = 0.0106587, global = 0.000218517, cumulative = -0.0907182
smoothSolver:  Solving for omega, Initial residual = 1.88539e-05, Final residual = 7.81019e-07, No Iterations 3
smoothSolver:  Solving for k, Initial residual = 0.0110472, Final residual = 0.000880465, No Iterations 3
ExecutionTime = 2.21 s  ClockTime = 2 s

Time = 75

smoothSolver:  Solving for Ux, Initial residual = 0.00131124, Final residual = 0.000116713, No Iterations 4
smoothSolver:  Solving for Uy, Initial residual = 0.00153887, Final residual = 0.000100156, No Iterations 6
GAMG:  Solving for p, Initial residual = 0.00761746, Final residual = 0.000709743, No Iterations 1
time step continuity errors : sum local = 0.0202585, global = 0.00161015, cumulative = -0.0891081
smoothSolver:  Solving for omega, Initial residual = 1.67934e-05, Final residual = 7.02327e-07, No Iterations 3
smoothSolver:  Solving for k, Initial residual = 0.0107351, Final residual = 0.000861147, No Iterations 3
ExecutionTime = 2.24 s  ClockTime = 2 s

Time = 76

smoothSolver:  Solving for Ux, Initial residual = 0.00129429, Final residual = 0.000114785, No Iterations 4
smoothSolver:  Solving for Uy, Initial residual = 0.00149451, Final residual = 9.95406e-05, No Iterations 6
GAMG:  Solving for p, Initial residual = 0.00782042, Final residual = 0.000612445, No Iterations 2
time step continuity errors : sum local = 0.0174593, global = -0.000174427, cumulative = -0.0892825
smoothSolver:  Solving for omega, Initial residual = 1.62718e-05, Final residual = 6.83935e-07, No Iterations 3
smoothSolver:  Solving for k, Initial residual = 0.0104508, Final residual = 0.000843237, No Iterations 3
ExecutionTime = 2.27 s  ClockTime = 2 s

Time = 77

smoothSolver:  Solving for Ux, Initial residual = 0.0012816, Final residual = 0.000113223, No Iterations 4
smoothSolver:  Solving for Uy, Initial residual = 0.00149308, Final residual = 9.92729e-05, No Iterations 6
GAMG:  Solving for p, Initial residual = 0.00742321, Final residual = 0.000740414, No Iterations 1
time step continuity errors : sum local = 0.021035, global = 0.000601551, cumulative = -0.088681
smoothSolver:  Solving for omega, Initial residual = 1.59626e-05, Final residual = 6.77279e-07, No Iterations 3
smoothSolver:  Solving for k, Initial residual = 0.0101771, Final residual = 0.000825657, No Iterations 3
ExecutionTime = 2.29 s  ClockTime = 2 s

Time = 78

smoothSolver:  Solving for Ux, Initial residual = 0.00125244, Final residual = 0.000110155, No Iterations 4
smoothSolver:  Solving for Uy, Initial residual = 0.00144779, Final residual = 9.7383e-05, No Iterations 6
GAMG:  Solving for p, Initial residual = 0.0076066, Final residual = 0.000330908, No Iterations 3
time step continuity errors : sum local = 0.00939527, global = 0.000844343, cumulative = -0.0878366
smoothSolver:  Solving for omega, Initial residual = 1.4519e-05, Final residual = 6.17719e-07, No Iterations 3
smoothSolver:  Solving for k, Initial residual = 0.00991479, Final residual = 0.000808861, No Iterations 3
ExecutionTime = 2.32 s  ClockTime = 2 s

Time = 79

smoothSolver:  Solving for Ux, Initial residual = 0.00125002, Final residual = 0.000109377, No Iterations 4
smoothSolver:  Solving for Uy, Initial residual = 0.00144813, Final residual = 9.72734e-05, No Iterations 6
GAMG:  Solving for p, Initial residual = 0.00722885, Final residual = 0.000611726, No Iterations 1
time step continuity errors : sum local = 0.0172982, global = 0.000915868, cumulative = -0.0869208
smoothSolver:  Solving for omega, Initial residual = 1.48425e-05, Final residual = 6.4139e-07, No Iterations 3
smoothSolver:  Solving for k, Initial residual = 0.00966876, Final residual = 0.000792919, No Iterations 3
ExecutionTime = 2.35 s  ClockTime = 2 s

Time = 80

smoothSolver:  Solving for Ux, Initial residual = 0.00122918, Final residual = 0.000107104, No Iterations 4
smoothSolver:  Solving for Uy, Initial residual = 0.00142143, Final residual = 9.57067e-05, No Iterations 6
GAMG:  Solving for p, Initial residual = 0.00754297, Final residual = 0.00033714, No Iterations 2
time step continuity errors : sum local = 0.00952863, global = 0.000220915, cumulative = -0.0866999
smoothSolver:  Solving for omega, Initial residual = 1.39349e-05, Final residual = 6.04912e-07, No Iterations 3
smoothSolver:  Solving for k, Initial residual = 0.00943301, Final residual = 0.000778004, No Iterations 3
ExecutionTime = 2.38 s  ClockTime = 2 s

Time = 81

smoothSolver:  Solving for Ux, Initial residual = 0.0012218, Final residual = 0.00010609, No Iterations 4
smoothSolver:  Solving for Uy, Initial residual = 0.00141377, Final residual = 9.51884e-05, No Iterations 6
GAMG:  Solving for p, Initial residual = 0.00707022, Final residual = 0.000600032, No Iterations 1
time step continuity errors : sum local = 0.0169354, global = 0.000951048, cumulative = -0.0857488
smoothSolver:  Solving for omega, Initial residual = 1.41649e-05, Final residual = 6.17795e-07, No Iterations 3
smoothSolver:  Solving for k, Initial residual = 0.00920591, Final residual = 0.000763108, No Iterations 3
ExecutionTime = 2.4 s  ClockTime = 2 s

Time = 82

smoothSolver:  Solving for Ux, Initial residual = 0.0012014, Final residual = 0.00010384, No Iterations 4
smoothSolver:  Solving for Uy, Initial residual = 0.00138434, Final residual = 9.35074e-05, No Iterations 6
GAMG:  Solving for p, Initial residual = 0.00734984, Final residual = 0.000468296, No Iterations 2
time step continuity errors : sum local = 0.0132159, global = 0.000360833, cumulative = -0.085388
smoothSolver:  Solving for omega, Initial residual = 1.32638e-05, Final residual = 5.8221e-07, No Iterations 3
smoothSolver:  Solving for k, Initial residual = 0.00899245, Final residual = 0.000749409, No Iterations 3
ExecutionTime = 2.43 s  ClockTime = 2 s

Time = 83

smoothSolver:  Solving for Ux, Initial residual = 0.00119087, Final residual = 0.000102528, No Iterations 4
smoothSolver:  Solving for Uy, Initial residual = 0.00139191, Final residual = 9.35906e-05, No Iterations 6
GAMG:  Solving for p, Initial residual = 0.00690439, Final residual = 0.000566402, No Iterations 1
time step continuity errors : sum local = 0.0159472, global = 0.000968582, cumulative = -0.0844194
smoothSolver:  Solving for omega, Initial residual = 1.31809e-05, Final residual = 5.80582e-07, No Iterations 3
smoothSolver:  Solving for k, Initial residual = 0.0087798, Final residual = 0.000735086, No Iterations 3
ExecutionTime = 2.45 s  ClockTime = 2 s

Time = 84

smoothSolver:  Solving for Ux, Initial residual = 0.00117609, Final residual = 0.000100822, No Iterations 4
smoothSolver:  Solving for Uy, Initial residual = 0.0013626, Final residual = 9.19819e-05, No Iterations 6
GAMG:  Solving for p, Initial residual = 0.00708791, Final residual = 0.000255935, No Iterations 3
time step continuity errors : sum local = 0.00720938, global = 0.000796291, cumulative = -0.0836231
smoothSolver:  Solving for omega, Initial residual = 1.27691e-05, Final residual = 5.63459e-07, No Iterations 3
smoothSolver:  Solving for k, Initial residual = 0.00858236, Final residual = 0.000722026, No Iterations 3
ExecutionTime = 2.48 s  ClockTime = 2 s

Time = 85

smoothSolver:  Solving for Ux, Initial residual = 0.00117165, Final residual = 9.99551e-05, No Iterations 4
smoothSolver:  Solving for Uy, Initial residual = 0.00135242, Final residual = 9.11553e-05, No Iterations 6
GAMG:  Solving for p, Initial residual = 0.00661883, Final residual = 0.000552882, No Iterations 1
time step continuity errors : sum local = 0.0155239, global = 0.00075428, cumulative = -0.0828688
smoothSolver:  Solving for omega, Initial residual = 1.30384e-05, Final residual = 5.79654e-07, No Iterations 3
smoothSolver:  Solving for k, Initial residual = 0.00838915, Final residual = 0.000709057, No Iterations 3
ExecutionTime = 2.51 s  ClockTime = 2 s

Time = 86

smoothSolver:  Solving for Ux, Initial residual = 0.00116105, Final residual = 9.86576e-05, No Iterations 4
smoothSolver:  Solving for Uy, Initial residual = 0.00132319, Final residual = 8.96941e-05, No Iterations 6
GAMG:  Solving for p, Initial residual = 0.00687411, Final residual = 0.000288205, No Iterations 2
time step continuity errors : sum local = 0.0080944, global = 0.000288799, cumulative = -0.08258
smoothSolver:  Solving for omega, Initial residual = 1.29419e-05, Final residual = 5.77631e-07, No Iterations 3
smoothSolver:  Solving for k, Initial residual = 0.00820725, Final residual = 0.000696868, No Iterations 3
ExecutionTime = 2.54 s  ClockTime = 2 s

Time = 87

smoothSolver:  Solving for Ux, Initial residual = 0.00113958, Final residual = 9.63437e-05, No Iterations 4
smoothSolver:  Solving for Uy, Initial residual = 0.00130794, Final residual = 8.85308e-05, No Iterations 6
GAMG:  Solving for p, Initial residual = 0.00642771, Final residual = 0.000605042, No Iterations 1
time step continuity errors : sum local = 0.016985, global = 0.00091399, cumulative = -0.081666
smoothSolver:  Solving for omega, Initial residual = 1.18563e-05, Final residual = 5.29635e-07, No Iterations 3
smoothSolver:  Solving for k, Initial residual = 0.00802947, Final residual = 0.000684605, No Iterations 3
ExecutionTime = 2.56 s  ClockTime = 2 s

Time = 88

smoothSolver:  Solving for Ux, Initial residual = 0.00112648, Final residual = 9.48171e-05, No Iterations 4
smoothSolver:  Solving for Uy, Initial residual = 0.00127958, Final residual = 8.71404e-05, No Iterations 6
GAMG:  Solving for p, Initial residual = 0.00671603, Final residual = 0.000412335, No Iterations 2
time step continuity errors : sum local = 0.0115768, global = 0.000567252, cumulative = -0.0810988
smoothSolver:  Solving for omega, Initial residual = 1.15196e-05, Final residual = 5.15421e-07, No Iterations 3
smoothSolver:  Solving for k, Initial residual = 0.0078602, Final residual = 0.000672937, No Iterations 3
ExecutionTime = 2.59 s  ClockTime = 2 s

Time = 89

smoothSolver:  Solving for Ux, Initial residual = 0.00111691, Final residual = 9.35852e-05, No Iterations 4
smoothSolver:  Solving for Uy, Initial residual = 0.00127831, Final residual = 8.665e-05, No Iterations 6
GAMG:  Solving for p, Initial residual = 0.00638473, Final residual = 0.000582757, No Iterations 1
time step continuity errors : sum local = 0.0163321, global = 0.00126433, cumulative = -0.0798344
smoothSolver:  Solving for omega, Initial residual = 1.13906e-05, Final residual = 5.1117e-07, No Iterations 3
smoothSolver:  Solving for k, Initial residual = 0.00769741, Final residual = 0.000661398, No Iterations 3
ExecutionTime = 2.61 s  ClockTime = 2 s

Time = 90

smoothSolver:  Solving for Ux, Initial residual = 0.00110519, Final residual = 9.22017e-05, No Iterations 4
smoothSolver:  Solving for Uy, Initial residual = 0.00124887, Final residual = 8.52454e-05, No Iterations 6
GAMG:  Solving for p, Initial residual = 0.00667774, Final residual = 0.000594586, No Iterations 2
time step continuity errors : sum local = 0.0166609, global = -0.000518254, cumulative = -0.0803527
smoothSolver:  Solving for omega, Initial residual = 1.11336e-05, Final residual = 5.00727e-07, No Iterations 3
smoothSolver:  Solving for k, Initial residual = 0.00754124, Final residual = 0.000650351, No Iterations 3
ExecutionTime = 2.64 s  ClockTime = 2 s

Time = 91

smoothSolver:  Solving for Ux, Initial residual = 0.00110237, Final residual = 9.1561e-05, No Iterations 4
smoothSolver:  Solving for Uy, Initial residual = 0.00124101, Final residual = 8.39738e-05, No Iterations 6
GAMG:  Solving for p, Initial residual = 0.00640014, Final residual = 0.000616918, No Iterations 1
time step continuity errors : sum local = 0.0172097, global = 2.8167e-05, cumulative = -0.0803245
smoothSolver:  Solving for omega, Initial residual = 1.152e-05, Final residual = 5.19344e-07, No Iterations 3
smoothSolver:  Solving for k, Initial residual = 0.00739455, Final residual = 0.000639403, No Iterations 3
ExecutionTime = 2.67 s  ClockTime = 2 s

Time = 92

smoothSolver:  Solving for Ux, Initial residual = 0.00108199, Final residual = 8.93927e-05, No Iterations 4
smoothSolver:  Solving for Uy, Initial residual = 0.00120329, Final residual = 8.21546e-05, No Iterations 6
GAMG:  Solving for p, Initial residual = 0.00668649, Final residual = 0.00035654, No Iterations 2
time step continuity errors : sum local = 0.00994464, global = -0.000171861, cumulative = -0.0804964
smoothSolver:  Solving for omega, Initial residual = 1.05102e-05, Final residual = 4.75993e-07, No Iterations 3
smoothSolver:  Solving for k, Initial residual = 0.00725187, Final residual = 0.000629011, No Iterations 3
ExecutionTime = 2.69 s  ClockTime = 2 s

Time = 93

smoothSolver:  Solving for Ux, Initial residual = 0.00106982, Final residual = 8.76391e-05, No Iterations 4
smoothSolver:  Solving for Uy, Initial residual = 0.00131506, Final residual = 0.000123696, No Iterations 5
GAMG:  Solving for p, Initial residual = 0.00632213, Final residual = 0.00060286, No Iterations 1
time step continuity errors : sum local = 0.0167704, global = 0.000795352, cumulative = -0.079701
smoothSolver:  Solving for omega, Initial residual = 9.90518e-06, Final residual = 4.5057e-07, No Iterations 3
smoothSolver:  Solving for k, Initial residual = 0.00710752, Final residual = 0.000618779, No Iterations 3
ExecutionTime = 2.71 s  ClockTime = 2 s

Time = 94

smoothSolver:  Solving for Ux, Initial residual = 0.00107237, Final residual = 8.79076e-05, No Iterations 4
smoothSolver:  Solving for Uy, Initial residual = 0.0011778, Final residual = 8.03028e-05, No Iterations 6
GAMG:  Solving for p, Initial residual = 0.00675659, Final residual = 0.000345993, No Iterations 2
time step continuity errors : sum local = 0.00961945, global = 0.000568113, cumulative = -0.0791329
smoothSolver:  Solving for omega, Initial residual = 1.10225e-05, Final residual = 5.03034e-07, No Iterations 3
smoothSolver:  Solving for k, Initial residual = 0.0069748, Final residual = 0.000609107, No Iterations 3
ExecutionTime = 2.74 s  ClockTime = 2 s

Time = 95

smoothSolver:  Solving for Ux, Initial residual = 0.00106229, Final residual = 8.66752e-05, No Iterations 4
smoothSolver:  Solving for Uy, Initial residual = 0.00116672, Final residual = 7.89739e-05, No Iterations 6
GAMG:  Solving for p, Initial residual = 0.00649017, Final residual = 0.000315208, No Iterations 2
time step continuity errors : sum local = 0.00874298, global = 0.00012591, cumulative = -0.079007
smoothSolver:  Solving for omega, Initial residual = 1.0781e-05, Final residual = 4.93567e-07, No Iterations 3
smoothSolver:  Solving for k, Initial residual = 0.00684284, Final residual = 0.000599318, No Iterations 3
ExecutionTime = 2.77 s  ClockTime = 2 s

Time = 96

smoothSolver:  Solving for Ux, Initial residual = 0.00105264, Final residual = 8.54989e-05, No Iterations 4
smoothSolver:  Solving for Uy, Initial residual = 0.00113832, Final residual = 7.70304e-05, No Iterations 6
GAMG:  Solving for p, Initial residual = 0.00658066, Final residual = 0.000632457, No Iterations 1
time step continuity errors : sum local = 0.017485, global = 0.00112577, cumulative = -0.0778812
smoothSolver:  Solving for omega, Initial residual = 1.05852e-05, Final residual = 4.84197e-07, No Iterations 3
smoothSolver:  Solving for k, Initial residual = 0.00671745, Final residual = 0.000590036, No Iterations 3
ExecutionTime = 2.79 s  ClockTime = 2 s

Time = 97

smoothSolver:  Solving for Ux, Initial residual = 0.00104018, Final residual = 8.4123e-05, No Iterations 4
smoothSolver:  Solving for Uy, Initial residual = 0.0011114, Final residual = 7.53616e-05, No Iterations 6
GAMG:  Solving for p, Initial residual = 0.00703834, Final residual = 0.000374667, No Iterations 2
time step continuity errors : sum local = 0.0103443, global = 0.000554037, cumulative = -0.0773272
smoothSolver:  Solving for omega, Initial residual = 1.01441e-05, Final residual = 4.65784e-07, No Iterations 3
smoothSolver:  Solving for k, Initial residual = 0.00659618, Final residual = 0.000580953, No Iterations 3
ExecutionTime = 2.82 s  ClockTime = 3 s

Time = 98

smoothSolver:  Solving for Ux, Initial residual = 0.00103201, Final residual = 8.31144e-05, No Iterations 4
smoothSolver:  Solving for Uy, Initial residual = 0.00109388, Final residual = 7.35374e-05, No Iterations 6
GAMG:  Solving for p, Initial residual = 0.00670133, Final residual = 0.000643099, No Iterations 1
time step continuity errors : sum local = 0.0176905, global = 0.0017338, cumulative = -0.0755934
smoothSolver:  Solving for omega, Initial residual = 1.00525e-05, Final residual = 4.61116e-07, No Iterations 3
smoothSolver:  Solving for k, Initial residual = 0.0064777, Final residual = 0.000571819, No Iterations 3
ExecutionTime = 2.84 s  ClockTime = 3 s

Time = 99

smoothSolver:  Solving for Ux, Initial residual = 0.00102599, Final residual = 8.23055e-05, No Iterations 4
smoothSolver:  Solving for Uy, Initial residual = 0.00106915, Final residual = 7.20681e-05, No Iterations 6
GAMG:  Solving for p, Initial residual = 0.00711522, Final residual = 0.000517016, No Iterations 2
time step continuity errors : sum local = 0.0142007, global = 0.000207647, cumulative = -0.0753858
smoothSolver:  Solving for omega, Initial residual = 1.0055e-05, Final residual = 4.64124e-07, No Iterations 3
smoothSolver:  Solving for k, Initial residual = 0.00636359, Final residual = 0.000563262, No Iterations 3
ExecutionTime = 2.87 s  ClockTime = 3 s

Time = 100

smoothSolver:  Solving for Ux, Initial residual = 0.00100948, Final residual = 8.05423e-05, No Iterations 4
smoothSolver:  Solving for Uy, Initial residual = 0.00104173, Final residual = 6.97051e-05, No Iterations 6
GAMG:  Solving for p, Initial residual = 0.0068382, Final residual = 0.000623502, No Iterations 1
time step continuity errors : sum local = 0.0170229, global = 0.00107956, cumulative = -0.0743062
smoothSolver:  Solving for omega, Initial residual = 9.1941e-06, Final residual = 4.24249e-07, No Iterations 3
smoothSolver:  Solving for k, Initial residual = 0.00625375, Final residual = 0.000554884, No Iterations 3
ExecutionTime = 2.94 s  ClockTime = 3 s

    functionObjects::turbulenceFields stressComponents writing field: turbulenceProperties:devReff

    functionObjects::pressure pressureCoefficient writing field: cp
writeCellCentres writeCellCentres write:
    writing cell-centres field C to 100
    Writing the x component field of the cell-centres Cx to 100
    Writing the y component field of the cell-centres Cy to 100
    Writing the z component field of the cell-centres Cz to 100
wallShearStress wallShearStress write:
    writing field wallShearStress
    min/max(upperWall) = (-7.4514 -0.0235294 -1.78312e-19), (-3.58374 0.000391853 1.38239e-19)
    min/max(lowerWall) = (-7.55322 -12.704 -7.04654e-19), (1.12174 0.0766641 1.22666e-18)
Time = 101

smoothSolver:  Solving for Ux, Initial residual = 0.00100927, Final residual = 8.02933e-05, No Iterations 4
smoothSolver:  Solving for Uy, Initial residual = 0.00101942, Final residual = 6.85176e-05, No Iterations 6
GAMG:  Solving for p, Initial residual = 0.00718488, Final residual = 0.000467764, No Iterations 2
time step continuity errors : sum local = 0.0127494, global = -6.93725e-05, cumulative = -0.0743756
smoothSolver:  Solving for omega, Initial residual = 9.63154e-06, Final residual = 4.48114e-07, No Iterations 3
smoothSolver:  Solving for k, Initial residual = 0.00614585, Final residual = 0.000546649, No Iterations 3
ExecutionTime = 3.04 s  ClockTime = 3 s

Time = 102

smoothSolver:  Solving for Ux, Initial residual = 0.00100134, Final residual = 7.93159e-05, No Iterations 4
smoothSolver:  Solving for Uy, Initial residual = 0.00100803, Final residual = 6.69467e-05, No Iterations 6
GAMG:  Solving for p, Initial residual = 0.00682484, Final residual = 0.00062297, No Iterations 1
time step continuity errors : sum local = 0.0168926, global = 0.000791964, cumulative = -0.0735836
smoothSolver:  Solving for omega, Initial residual = 9.44554e-06, Final residual = 4.39566e-07, No Iterations 3
smoothSolver:  Solving for k, Initial residual = 0.0060422, Final residual = 0.000538611, No Iterations 3
ExecutionTime = 3.07 s  ClockTime = 3 s

Time = 103

smoothSolver:  Solving for Ux, Initial residual = 0.000992728, Final residual = 7.8334e-05, No Iterations 4
smoothSolver:  Solving for Uy, Initial residual = 0.000979045, Final residual = 6.54666e-05, No Iterations 6
GAMG:  Solving for p, Initial residual = 0.00706319, Final residual = 0.000341483, No Iterations 2
time step continuity errors : sum local = 0.00925229, global = 0.000453736, cumulative = -0.0731299
smoothSolver:  Solving for omega, Initial residual = 9.18307e-06, Final residual = 4.30918e-07, No Iterations 3
smoothSolver:  Solving for k, Initial residual = 0.00594178, Final residual = 0.000530905, No Iterations 3
ExecutionTime = 3.09 s  ClockTime = 3 s

Time = 104

smoothSolver:  Solving for Ux, Initial residual = 0.000984742, Final residual = 7.73736e-05, No Iterations 4
smoothSolver:  Solving for Uy, Initial residual = 0.00100648, Final residual = 9.85082e-05, No Iterations 5
GAMG:  Solving for p, Initial residual = 0.0066023, Final residual = 0.000639079, No Iterations 1
time step continuity errors : sum local = 0.0172624, global = 0.00154226, cumulative = -0.0715876
smoothSolver:  Solving for omega, Initial residual = 8.96588e-06, Final residual = 4.21637e-07, No Iterations 3
smoothSolver:  Solving for k, Initial residual = 0.00584743, Final residual = 0.000523074, No Iterations 3
ExecutionTime = 3.12 s  ClockTime = 3 s

Time = 105

smoothSolver:  Solving for Ux, Initial residual = 0.000975002, Final residual = 7.6306e-05, No Iterations 4
smoothSolver:  Solving for Uy, Initial residual = 0.000954208, Final residual = 6.32102e-05, No Iterations 6
GAMG:  Solving for p, Initial residual = 0.00683313, Final residual = 0.000428951, No Iterations 2
time step continuity errors : sum local = 0.0115751, global = 0.00057455, cumulative = -0.0710131
smoothSolver:  Solving for omega, Initial residual = 8.58769e-06, Final residual = 4.07219e-07, No Iterations 3
smoothSolver:  Solving for k, Initial residual = 0.0057572, Final residual = 0.000515656, No Iterations 3
ExecutionTime = 3.14 s  ClockTime = 3 s

Time = 106

smoothSolver:  Solving for Ux, Initial residual = 0.000970003, Final residual = 7.5633e-05, No Iterations 4
smoothSolver:  Solving for Uy, Initial residual = 0.000927587, Final residual = 6.17134e-05, No Iterations 6
GAMG:  Solving for p, Initial residual = 0.00646177, Final residual = 0.000626151, No Iterations 1
time step continuity errors : sum local = 0.0168276, global = 0.00155843, cumulative = -0.0694546
smoothSolver:  Solving for omega, Initial residual = 8.56519e-06, Final residual = 4.07752e-07, No Iterations 3
smoothSolver:  Solving for k, Initial residual = 0.00565265, Final residual = 0.000508733, No Iterations 3
ExecutionTime = 3.16 s  ClockTime = 3 s

Time = 107

smoothSolver:  Solving for Ux, Initial residual = 0.000964833, Final residual = 7.4964e-05, No Iterations 4
smoothSolver:  Solving for Uy, Initial residual = 0.000904973, Final residual = 6.03384e-05, No Iterations 6
GAMG:  Solving for p, Initial residual = 0.00669467, Final residual = 0.000478107, No Iterations 2
time step continuity errors : sum local = 0.0128338, global = 0.000121698, cumulative = -0.0693329
smoothSolver:  Solving for omega, Initial residual = 8.52175e-06, Final residual = 4.08396e-07, No Iterations 3
smoothSolver:  Solving for k, Initial residual = 0.00556103, Final residual = 0.000501383, No Iterations 3
ExecutionTime = 3.19 s  ClockTime = 3 s

Time = 108

smoothSolver:  Solving for Ux, Initial residual = 0.00094934, Final residual = 7.329e-05, No Iterations 4
smoothSolver:  Solving for Uy, Initial residual = 0.000960989, Final residual = 8.92548e-05, No Iterations 5
GAMG:  Solving for p, Initial residual = 0.00632211, Final residual = 0.000592027, No Iterations 1
time step continuity errors : sum local = 0.0158008, global = 0.000839452, cumulative = -0.0684935
smoothSolver:  Solving for omega, Initial residual = 7.61417e-06, Final residual = 3.66819e-07, No Iterations 3
smoothSolver:  Solving for k, Initial residual = 0.00547066, Final residual = 0.00049472, No Iterations 3
ExecutionTime = 3.21 s  ClockTime = 3 s

Time = 109

smoothSolver:  Solving for Ux, Initial residual = 0.000950743, Final residual = 7.33085e-05, No Iterations 4
smoothSolver:  Solving for Uy, Initial residual = 0.000866953, Final residual = 5.76775e-05, No Iterations 6
GAMG:  Solving for p, Initial residual = 0.00657111, Final residual = 0.000343501, No Iterations 2
time step continuity errors : sum local = 0.00915241, global = 0.000161951, cumulative = -0.0683315
smoothSolver:  Solving for omega, Initial residual = 8.1086e-06, Final residual = 3.93653e-07, No Iterations 3
smoothSolver:  Solving for k, Initial residual = 0.00538396, Final residual = 0.000487947, No Iterations 3
ExecutionTime = 3.24 s  ClockTime = 3 s

Time = 110

smoothSolver:  Solving for Ux, Initial residual = 0.000945249, Final residual = 7.26076e-05, No Iterations 4
smoothSolver:  Solving for Uy, Initial residual = 0.000849492, Final residual = 5.62902e-05, No Iterations 6
GAMG:  Solving for p, Initial residual = 0.00627437, Final residual = 0.000579296, No Iterations 1
time step continuity errors : sum local = 0.0153637, global = 0.000953593, cumulative = -0.0673779
smoothSolver:  Solving for omega, Initial residual = 7.99947e-06, Final residual = 3.90405e-07, No Iterations 3
smoothSolver:  Solving for k, Initial residual = 0.00530008, Final residual = 0.000481515, No Iterations 3
ExecutionTime = 3.27 s  ClockTime = 3 s

Time = 111

smoothSolver:  Solving for Ux, Initial residual = 0.000937913, Final residual = 7.17783e-05, No Iterations 4
smoothSolver:  Solving for Uy, Initial residual = 0.000827249, Final residual = 5.50014e-05, No Iterations 6
GAMG:  Solving for p, Initial residual = 0.00652757, Final residual = 0.000334096, No Iterations 2
time step continuity errors : sum local = 0.00884158, global = 0.000476683, cumulative = -0.0669013
smoothSolver:  Solving for omega, Initial residual = 7.75215e-06, Final residual = 3.82155e-07, No Iterations 3
smoothSolver:  Solving for k, Initial residual = 0.00521729, Final residual = 0.000475184, No Iterations 3
ExecutionTime = 3.29 s  ClockTime = 3 s

Time = 112

smoothSolver:  Solving for Ux, Initial residual = 0.000932016, Final residual = 7.10698e-05, No Iterations 4
smoothSolver:  Solving for Uy, Initial residual = 0.000814064, Final residual = 5.36028e-05, No Iterations 6
GAMG:  Solving for p, Initial residual = 0.00646402, Final residual = 0.000592034, No Iterations 1
time step continuity errors : sum local = 0.0156035, global = 0.00135632, cumulative = -0.0655449
smoothSolver:  Solving for omega, Initial residual = 7.63071e-06, Final residual = 3.76391e-07, No Iterations 3
smoothSolver:  Solving for k, Initial residual = 0.0051426, Final residual = 0.000469153, No Iterations 3
ExecutionTime = 3.32 s  ClockTime = 3 s

Time = 113

smoothSolver:  Solving for Ux, Initial residual = 0.000921556, Final residual = 6.9991e-05, No Iterations 4
smoothSolver:  Solving for Uy, Initial residual = 0.00081711, Final residual = 8.04736e-05, No Iterations 5
GAMG:  Solving for p, Initial residual = 0.00660703, Final residual = 0.000399874, No Iterations 2
time step continuity errors : sum local = 0.0105154, global = 0.000302952, cumulative = -0.065242
smoothSolver:  Solving for omega, Initial residual = 7.15446e-06, Final residual = 3.56562e-07, No Iterations 3
smoothSolver:  Solving for k, Initial residual = 0.00506675, Final residual = 0.000463133, No Iterations 3
ExecutionTime = 3.36 s  ClockTime = 3 s

Time = 114

smoothSolver:  Solving for Ux, Initial residual = 0.000917789, Final residual = 6.94571e-05, No Iterations 4
[...]
smoothSolver:  Solving for Uy, Initial residual = 3.64132e-05, Final residual = 2.21647e-06, No Iterations 4
GAMG:  Solving for p, Initial residual = 0.0118696, Final residual = 0.000989181, No Iterations 1
time step continuity errors : sum local = 0.0157445, global = -0.000220393, cumulative = 0.118755
smoothSolver:  Solving for omega, Initial residual = 7.5962e-07, Final residual = 3.30991e-08, No Iterations 3
smoothSolver:  Solving for k, Initial residual = 0.000134662, Final residual = 6.48114e-06, No Iterations 4
ExecutionTime = 48.58 s  ClockTime = 48 s

Time = 1974

smoothSolver:  Solving for Ux, Initial residual = 0.00237768, Final residual = 0.000235491, No Iterations 3
smoothSolver:  Solving for Uy, Initial residual = 3.11469e-05, Final residual = 2.23897e-06, No Iterations 4
GAMG:  Solving for p, Initial residual = 0.0111694, Final residual = 0.000961228, No Iterations 1
time step continuity errors : sum local = 0.0152955, global = -0.000103451, cumulative = 0.118652
smoothSolver:  Solving for omega, Initial residual = 7.80851e-07, Final residual = 3.28875e-08, No Iterations 3
smoothSolver:  Solving for k, Initial residual = 0.000134777, Final residual = 6.48574e-06, No Iterations 4
ExecutionTime = 48.61 s  ClockTime = 48 s

Time = 1975

smoothSolver:  Solving for Ux, Initial residual = 0.00239099, Final residual = 0.000236929, No Iterations 3
smoothSolver:  Solving for Uy, Initial residual = 3.07731e-05, Final residual = 2.2314e-06, No Iterations 4
GAMG:  Solving for p, Initial residual = 0.012173, Final residual = 0.000978269, No Iterations 1
time step continuity errors : sum local = 0.0155489, global = 3.54961e-05, cumulative = 0.118687
smoothSolver:  Solving for omega, Initial residual = 7.88532e-07, Final residual = 3.36548e-08, No Iterations 3
smoothSolver:  Solving for k, Initial residual = 0.000134829, Final residual = 6.49002e-06, No Iterations 4
ExecutionTime = 48.63 s  ClockTime = 48 s

Time = 1976

smoothSolver:  Solving for Ux, Initial residual = 0.00239916, Final residual = 0.000237666, No Iterations 3
smoothSolver:  Solving for Uy, Initial residual = 3.02786e-05, Final residual = 2.21722e-06, No Iterations 4
GAMG:  Solving for p, Initial residual = 0.0129149, Final residual = 0.000950047, No Iterations 1
time step continuity errors : sum local = 0.0151214, global = 0.000173801, cumulative = 0.118861
smoothSolver:  Solving for omega, Initial residual = 7.85729e-07, Final residual = 3.32771e-08, No Iterations 3
smoothSolver:  Solving for k, Initial residual = 0.000134909, Final residual = 6.49438e-06, No Iterations 4
ExecutionTime = 48.65 s  ClockTime = 48 s

Time = 1977

smoothSolver:  Solving for Ux, Initial residual = 0.00240123, Final residual = 0.000237731, No Iterations 3
smoothSolver:  Solving for Uy, Initial residual = 3.0426e-05, Final residual = 2.14611e-06, No Iterations 4
GAMG:  Solving for p, Initial residual = 0.0119134, Final residual = 0.000913843, No Iterations 1
time step continuity errors : sum local = 0.0145973, global = 0.000289977, cumulative = 0.119151
smoothSolver:  Solving for omega, Initial residual = 7.91469e-07, Final residual = 7.8264e-08, No Iterations 2
smoothSolver:  Solving for k, Initial residual = 0.000135031, Final residual = 6.4992e-06, No Iterations 4
ExecutionTime = 48.68 s  ClockTime = 48 s

Time = 1978

smoothSolver:  Solving for Ux, Initial residual = 0.00241561, Final residual = 0.000239247, No Iterations 3
smoothSolver:  Solving for Uy, Initial residual = 2.93383e-05, Final residual = 2.09273e-06, No Iterations 4
GAMG:  Solving for p, Initial residual = 0.0122918, Final residual = 0.000995948, No Iterations 1
time step continuity errors : sum local = 0.0159377, global = 0.00036608, cumulative = 0.119517
smoothSolver:  Solving for omega, Initial residual = 7.79579e-07, Final residual = 3.32494e-08, No Iterations 3
smoothSolver:  Solving for k, Initial residual = 0.000135083, Final residual = 6.50395e-06, No Iterations 4
ExecutionTime = 48.7 s  ClockTime = 48 s

Time = 1979

smoothSolver:  Solving for Ux, Initial residual = 0.00241981, Final residual = 0.000239571, No Iterations 3
smoothSolver:  Solving for Uy, Initial residual = 2.97485e-05, Final residual = 2.068e-06, No Iterations 4
GAMG:  Solving for p, Initial residual = 0.0133316, Final residual = 0.00104199, No Iterations 1
time step continuity errors : sum local = 0.0167001, global = 0.000389592, cumulative = 0.119906
smoothSolver:  Solving for omega, Initial residual = 7.85384e-07, Final residual = 3.30398e-08, No Iterations 3
smoothSolver:  Solving for k, Initial residual = 0.000135214, Final residual = 6.50884e-06, No Iterations 4
ExecutionTime = 48.73 s  ClockTime = 48 s

Time = 1980

smoothSolver:  Solving for Ux, Initial residual = 0.00243061, Final residual = 0.000240578, No Iterations 3
smoothSolver:  Solving for Uy, Initial residual = 3.02964e-05, Final residual = 2.08657e-06, No Iterations 4
GAMG:  Solving for p, Initial residual = 0.0131222, Final residual = 0.00104712, No Iterations 1
time step continuity errors : sum local = 0.0168195, global = 0.000354536, cumulative = 0.120261
smoothSolver:  Solving for omega, Initial residual = 8.29227e-07, Final residual = 7.97588e-08, No Iterations 2
smoothSolver:  Solving for k, Initial residual = 0.000135283, Final residual = 6.51358e-06, No Iterations 4
ExecutionTime = 48.75 s  ClockTime = 48 s

Time = 1981

smoothSolver:  Solving for Ux, Initial residual = 0.002437, Final residual = 0.000241271, No Iterations 3
smoothSolver:  Solving for Uy, Initial residual = 3.09372e-05, Final residual = 2.13982e-06, No Iterations 4
GAMG:  Solving for p, Initial residual = 0.0129949, Final residual = 0.00103932, No Iterations 1
time step continuity errors : sum local = 0.016688, global = 0.000265738, cumulative = 0.120527
smoothSolver:  Solving for omega, Initial residual = 8.50572e-07, Final residual = 8.05941e-08, No Iterations 2
smoothSolver:  Solving for k, Initial residual = 0.000135385, Final residual = 6.5189e-06, No Iterations 4
ExecutionTime = 48.77 s  ClockTime = 48 s

Time = 1982

smoothSolver:  Solving for Ux, Initial residual = 0.00244789, Final residual = 0.000242312, No Iterations 3
smoothSolver:  Solving for Uy, Initial residual = 3.08629e-05, Final residual = 2.1407e-06, No Iterations 4
GAMG:  Solving for p, Initial residual = 0.0132782, Final residual = 0.00102205, No Iterations 1
time step continuity errors : sum local = 0.0163974, global = 0.000141596, cumulative = 0.120668
smoothSolver:  Solving for omega, Initial residual = 8.28855e-07, Final residual = 7.96528e-08, No Iterations 2
smoothSolver:  Solving for k, Initial residual = 0.000135491, Final residual = 6.52392e-06, No Iterations 4
ExecutionTime = 48.8 s  ClockTime = 48 s

Time = 1983

smoothSolver:  Solving for Ux, Initial residual = 0.00244808, Final residual = 0.000242392, No Iterations 3
smoothSolver:  Solving for Uy, Initial residual = 3.05589e-05, Final residual = 2.13883e-06, No Iterations 4
GAMG:  Solving for p, Initial residual = 0.0127978, Final residual = 0.00101047, No Iterations 1
time step continuity errors : sum local = 0.0162219, global = 4.08135e-06, cumulative = 0.120672
smoothSolver:  Solving for omega, Initial residual = 8.04548e-07, Final residual = 7.93021e-08, No Iterations 2
smoothSolver:  Solving for k, Initial residual = 0.000135591, Final residual = 6.52905e-06, No Iterations 4
ExecutionTime = 48.82 s  ClockTime = 49 s

Time = 1984

smoothSolver:  Solving for Ux, Initial residual = 0.00246929, Final residual = 0.000244485, No Iterations 3
smoothSolver:  Solving for Uy, Initial residual = 2.99434e-05, Final residual = 2.09229e-06, No Iterations 4
GAMG:  Solving for p, Initial residual = 0.0123473, Final residual = 0.000977565, No Iterations 1
time step continuity errors : sum local = 0.0156385, global = -0.000123999, cumulative = 0.120548
smoothSolver:  Solving for omega, Initial residual = 8.17108e-07, Final residual = 3.42247e-08, No Iterations 3
smoothSolver:  Solving for k, Initial residual = 0.000135686, Final residual = 6.53417e-06, No Iterations 4
ExecutionTime = 48.84 s  ClockTime = 49 s

Time = 1985

smoothSolver:  Solving for Ux, Initial residual = 0.00247298, Final residual = 0.000244828, No Iterations 3
smoothSolver:  Solving for Uy, Initial residual = 2.92675e-05, Final residual = 2.04924e-06, No Iterations 4
GAMG:  Solving for p, Initial residual = 0.0123199, Final residual = 0.000974569, No Iterations 1
time step continuity errors : sum local = 0.0155458, global = -0.000222606, cumulative = 0.120326
smoothSolver:  Solving for omega, Initial residual = 7.97306e-07, Final residual = 3.39808e-08, No Iterations 3
smoothSolver:  Solving for k, Initial residual = 0.000135789, Final residual = 6.53889e-06, No Iterations 4
ExecutionTime = 48.87 s  ClockTime = 49 s

Time = 1986

smoothSolver:  Solving for Ux, Initial residual = 0.00248403, Final residual = 0.000245948, No Iterations 3
smoothSolver:  Solving for Uy, Initial residual = 2.91412e-05, Final residual = 2.04372e-06, No Iterations 4
GAMG:  Solving for p, Initial residual = 0.0122613, Final residual = 0.000984726, No Iterations 1
time step continuity errors : sum local = 0.0156872, global = -0.000275758, cumulative = 0.12005
smoothSolver:  Solving for omega, Initial residual = 7.77646e-07, Final residual = 3.40525e-08, No Iterations 3
smoothSolver:  Solving for k, Initial residual = 0.000135886, Final residual = 6.54363e-06, No Iterations 4
ExecutionTime = 48.9 s  ClockTime = 49 s

Time = 1987

smoothSolver:  Solving for Ux, Initial residual = 0.00248943, Final residual = 0.000246455, No Iterations 3
smoothSolver:  Solving for Uy, Initial residual = 3.05643e-05, Final residual = 2.08039e-06, No Iterations 4
GAMG:  Solving for p, Initial residual = 0.0119546, Final residual = 0.00100793, No Iterations 1
time step continuity errors : sum local = 0.0160421, global = -0.000272411, cumulative = 0.119778
smoothSolver:  Solving for omega, Initial residual = 7.75285e-07, Final residual = 3.41025e-08, No Iterations 3
smoothSolver:  Solving for k, Initial residual = 0.000135975, Final residual = 6.54865e-06, No Iterations 4
ExecutionTime = 48.92 s  ClockTime = 49 s

Time = 1988

smoothSolver:  Solving for Ux, Initial residual = 0.00249556, Final residual = 0.000247143, No Iterations 3
smoothSolver:  Solving for Uy, Initial residual = 2.99797e-05, Final residual = 2.16546e-06, No Iterations 4
GAMG:  Solving for p, Initial residual = 0.0118416, Final residual = 0.000991139, No Iterations 1
time step continuity errors : sum local = 0.0157484, global = -0.000208707, cumulative = 0.119569
smoothSolver:  Solving for omega, Initial residual = 7.70796e-07, Final residual = 3.39605e-08, No Iterations 3
smoothSolver:  Solving for k, Initial residual = 0.000136079, Final residual = 6.55331e-06, No Iterations 4
ExecutionTime = 48.94 s  ClockTime = 49 s

Time = 1989

smoothSolver:  Solving for Ux, Initial residual = 0.00250979, Final residual = 0.000248522, No Iterations 3
smoothSolver:  Solving for Uy, Initial residual = 3.21338e-05, Final residual = 2.20515e-06, No Iterations 4
GAMG:  Solving for p, Initial residual = 0.0113191, Final residual = 0.000954053, No Iterations 1
time step continuity errors : sum local = 0.0151584, global = -9.88734e-05, cumulative = 0.11947
smoothSolver:  Solving for omega, Initial residual = 7.76908e-07, Final residual = 3.31103e-08, No Iterations 3
smoothSolver:  Solving for k, Initial residual = 0.000137044, Final residual = 6.55926e-06, No Iterations 4
ExecutionTime = 48.96 s  ClockTime = 49 s

Time = 1990

smoothSolver:  Solving for Ux, Initial residual = 0.00252343, Final residual = 0.000250011, No Iterations 3
smoothSolver:  Solving for Uy, Initial residual = 3.32285e-05, Final residual = 2.21139e-06, No Iterations 4
GAMG:  Solving for p, Initial residual = 0.0119582, Final residual = 0.000970915, No Iterations 1
time step continuity errors : sum local = 0.015409, global = 3.72089e-05, cumulative = 0.119507
smoothSolver:  Solving for omega, Initial residual = 7.91414e-07, Final residual = 3.37537e-08, No Iterations 3
smoothSolver:  Solving for k, Initial residual = 0.000137854, Final residual = 6.56425e-06, No Iterations 4
ExecutionTime = 48.99 s  ClockTime = 49 s

Time = 1991

smoothSolver:  Solving for Ux, Initial residual = 0.00252626, Final residual = 0.000250257, No Iterations 3
smoothSolver:  Solving for Uy, Initial residual = 3.1701e-05, Final residual = 2.1944e-06, No Iterations 4
GAMG:  Solving for p, Initial residual = 0.012888, Final residual = 0.000958756, No Iterations 1
time step continuity errors : sum local = 0.0152325, global = 0.000177496, cumulative = 0.119685
smoothSolver:  Solving for omega, Initial residual = 7.90339e-07, Final residual = 3.33709e-08, No Iterations 3
smoothSolver:  Solving for k, Initial residual = 0.000136607, Final residual = 6.56856e-06, No Iterations 4
ExecutionTime = 49.01 s  ClockTime = 49 s

Time = 1992

smoothSolver:  Solving for Ux, Initial residual = 0.00252665, Final residual = 0.000250152, No Iterations 3
smoothSolver:  Solving for Uy, Initial residual = 2.94193e-05, Final residual = 2.13804e-06, No Iterations 4
GAMG:  Solving for p, Initial residual = 0.0119968, Final residual = 0.000913101, No Iterations 1
time step continuity errors : sum local = 0.0145591, global = 0.000300206, cumulative = 0.119985
smoothSolver:  Solving for omega, Initial residual = 7.90725e-07, Final residual = 7.85555e-08, No Iterations 2
smoothSolver:  Solving for k, Initial residual = 0.000136521, Final residual = 6.57362e-06, No Iterations 4
ExecutionTime = 49.03 s  ClockTime = 49 s

Time = 1993

smoothSolver:  Solving for Ux, Initial residual = 0.00253472, Final residual = 0.000251046, No Iterations 3
smoothSolver:  Solving for Uy, Initial residual = 2.90357e-05, Final residual = 2.07848e-06, No Iterations 4
GAMG:  Solving for p, Initial residual = 0.0121153, Final residual = 0.00097718, No Iterations 1
time step continuity errors : sum local = 0.0156124, global = 0.000386975, cumulative = 0.120372
smoothSolver:  Solving for omega, Initial residual = 7.80361e-07, Final residual = 3.32741e-08, No Iterations 3
smoothSolver:  Solving for k, Initial residual = 0.000136604, Final residual = 6.57866e-06, No Iterations 4
ExecutionTime = 49.06 s  ClockTime = 49 s

Time = 1994
Duration of pickling 0.052636146545410156 too long. Extending frequency from 1.0 to 2.631807327270508

smoothSolver:  Solving for Ux, Initial residual = 0.00245743, Final residual = 0.000242572, No Iterations 3
smoothSolver:  Solving for Uy, Initial residual = 4.62601e-05, Final residual = 3.61839e-06, No Iterations 3
GAMG:  Solving for p, Initial residual = 0.0132082, Final residual = 0.00103212, No Iterations 1
time step continuity errors : sum local = 0.0165138, global = 0.00042439, cumulative = 0.120796
smoothSolver:  Solving for omega, Initial residual = 7.56366e-07, Final residual = 3.22573e-08, No Iterations 3
smoothSolver:  Solving for k, Initial residual = 0.0001367, Final residual = 6.58332e-06, No Iterations 4
ExecutionTime = 49.08 s  ClockTime = 49 s

Time = 1995

smoothSolver:  Solving for Ux, Initial residual = 0.00255791, Final residual = 0.000253166, No Iterations 3
smoothSolver:  Solving for Uy, Initial residual = 3.06557e-05, Final residual = 2.14652e-06, No Iterations 4
GAMG:  Solving for p, Initial residual = 0.013138, Final residual = 0.00102548, No Iterations 1
time step continuity errors : sum local = 0.0164578, global = 0.000403529, cumulative = 0.1212
smoothSolver:  Solving for omega, Initial residual = 8.21857e-07, Final residual = 8.01089e-08, No Iterations 2
smoothSolver:  Solving for k, Initial residual = 0.000136793, Final residual = 6.58831e-06, No Iterations 4
ExecutionTime = 49.11 s  ClockTime = 49 s

Time = 1996

smoothSolver:  Solving for Ux, Initial residual = 0.00255881, Final residual = 0.000253295, No Iterations 3
smoothSolver:  Solving for Uy, Initial residual = 3.33567e-05, Final residual = 2.15927e-06, No Iterations 4
GAMG:  Solving for p, Initial residual = 0.012913, Final residual = 0.00102746, No Iterations 1
time step continuity errors : sum local = 0.0164968, global = 0.000327302, cumulative = 0.121527
smoothSolver:  Solving for omega, Initial residual = 8.5355e-07, Final residual = 8.07884e-08, No Iterations 2
smoothSolver:  Solving for k, Initial residual = 0.000136889, Final residual = 6.59365e-06, No Iterations 4
ExecutionTime = 49.13 s  ClockTime = 49 s

Time = 1997

smoothSolver:  Solving for Ux, Initial residual = 0.00258048, Final residual = 0.000255433, No Iterations 3
smoothSolver:  Solving for Uy, Initial residual = 3.09881e-05, Final residual = 2.1461e-06, No Iterations 4
GAMG:  Solving for p, Initial residual = 0.0132058, Final residual = 0.00101557, No Iterations 1
time step continuity errors : sum local = 0.0162897, global = 0.000212632, cumulative = 0.12174
smoothSolver:  Solving for omega, Initial residual = 8.32866e-07, Final residual = 8.03671e-08, No Iterations 2
smoothSolver:  Solving for k, Initial residual = 0.000137002, Final residual = 6.59879e-06, No Iterations 4
ExecutionTime = 49.16 s  ClockTime = 49 s

Time = 1998

smoothSolver:  Solving for Ux, Initial residual = 0.00257394, Final residual = 0.000254849, No Iterations 3
smoothSolver:  Solving for Uy, Initial residual = 3.06062e-05, Final residual = 2.13651e-06, No Iterations 4
GAMG:  Solving for p, Initial residual = 0.0129111, Final residual = 0.00101591, No Iterations 1
time step continuity errors : sum local = 0.016318, global = 8.05017e-05, cumulative = 0.12182
smoothSolver:  Solving for omega, Initial residual = 8.01971e-07, Final residual = 7.92102e-08, No Iterations 2
smoothSolver:  Solving for k, Initial residual = 0.000137094, Final residual = 6.6039e-06, No Iterations 4
ExecutionTime = 49.19 s  ClockTime = 49 s

Time = 1999

smoothSolver:  Solving for Ux, Initial residual = 0.00260275, Final residual = 0.000257684, No Iterations 3
smoothSolver:  Solving for Uy, Initial residual = 3.01071e-05, Final residual = 2.0917e-06, No Iterations 4
GAMG:  Solving for p, Initial residual = 0.0124623, Final residual = 0.000992412, No Iterations 1
time step continuity errors : sum local = 0.015889, global = -4.67229e-05, cumulative = 0.121774
smoothSolver:  Solving for omega, Initial residual = 8.16524e-07, Final residual = 3.42787e-08, No Iterations 3
smoothSolver:  Solving for k, Initial residual = 0.000137194, Final residual = 6.60905e-06, No Iterations 4
ExecutionTime = 49.21 s  ClockTime = 49 s

Time = 2000

smoothSolver:  Solving for Ux, Initial residual = 0.00250827, Final residual = 0.00024779, No Iterations 3
smoothSolver:  Solving for Uy, Initial residual = 3.56524e-05, Final residual = 2.04253e-06, No Iterations 4
GAMG:  Solving for p, Initial residual = 0.0123944, Final residual = 0.000984665, No Iterations 1
time step continuity errors : sum local = 0.015717, global = -0.0001485, cumulative = 0.121625
smoothSolver:  Solving for omega, Initial residual = 7.80106e-07, Final residual = 3.31387e-08, No Iterations 3
smoothSolver:  Solving for k, Initial residual = 0.000137309, Final residual = 6.61383e-06, No Iterations 4
ExecutionTime = 49.29 s  ClockTime = 49 s

    functionObjects::turbulenceFields stressComponents writing field: turbulenceProperties:devReff

    functionObjects::pressure pressureCoefficient writing field: cp
writeCellCentres writeCellCentres write:
    writing cell-centres field C to 2000
    Writing the x component field of the cell-centres Cx to 2000
    Writing the y component field of the cell-centres Cy to 2000
    Writing the z component field of the cell-centres Cz to 2000
wallShearStress wallShearStress write:
    writing field wallShearStress
    min/max(upperWall) = (-10.6639 -0.00278866 -3.80655e-20), (-2.68995 0.00309879 1.74447e-20)
    min/max(lowerWall) = (-10.9357 -4.1298 -9.38197e-19), (1.80751 4.52951 1.32885e-18)
End

