/*---------------------------------------------------------------------------*\
| =========                 |                                                 |
| \\      /  F ield         | OpenFOAM: The Open Source CFD Toolbox           |
|  \\    /   O peration     | Version:  2306                                  |
|   \\  /    A nd           | Website:  www.openfoam.com                      |
|    \\/     M anipulation  |                                                 |
\*---------------------------------------------------------------------------*/
Build  : _fbf00d6b-20230626 OPENFOAM=2306 version=2306
Arch   : "LSB;label=32;scalar=64"
Exec   : simpleFoam
Date   : Feb 09 2024
Time   : 18:22:40
Host   : johanes2022
PID    : 14110
I/O    : uncollated
Case   : /home/juan/OpenFOAM/juan-v2306/run/Skill_Lync/Introduction_to_OpenFOAM_development/Week9-Challenge/backwardFacingStep2D/kOmega
nProcs : 1
trapFpe: Floating point exception trapping enabled (FOAM_SIGFPE).
fileModificationChecking : Monitoring run-time modified files using timeStampMaster (fileModificationSkew 5, maxFileModificationPolls 20)
allowSystemOperations : Allowing user-supplied system call operations

// * * * * * * * * * * * * * * * * * * * * * * * * * * * * * * * * * * * * * //
Create time

Create mesh for time = 0


SIMPLE: convergence criteria
    field p	 tolerance 0.0001
    field U	 tolerance 1e-06
    field "(k|epsilon|omega|f|v2)"	 tolerance 1e-05

Reading field p

Reading field U

Reading/calculating face flux field phi

Selecting incompressible transport model Newtonian
Selecting turbulence model type RAS
Selecting RAS turbulence model kOmega
RAS
{
    RASModel        kOmega;
    turbulence      on;
    printCoeffs     on;
    betaStar        0.09;
    beta            0.072;
    gamma           0.52;
    alphaK          0.5;
    alphaOmega      0.5;
}

No MRF models present

No finite volume options present

Starting time loop

turbulenceFields stressComponents: storing fields:
    turbulenceProperties:devReff

pressure pressureCoefficient:
    Operating mode: staticCoeff
    Not including hydrostatic effects

Sampled set:
    Uref -> raw
    x_by_h_m04 -> raw
    x_by_h_01 -> raw
    x_by_h_04 -> raw
    x_by_h_06 -> raw
    x_by_h_10 -> raw

wallShearStress wallShearStress:
    processing all wall patches

Time = 1

smoothSolver:  Solving for Ux, Initial residual = 1, Final residual = 0.0674849, No Iterations 6
smoothSolver:  Solving for Uy, Initial residual = 1, Final residual = 0.0891915, No Iterations 4
GAMG:  Solving for p, Initial residual = 1, Final residual = 0.0621152, No Iterations 10
time step continuity errors : sum local = 1.1607, global = -0.13, cumulative = -0.13
smoothSolver:  Solving for omega, Initial residual = 0.277922, Final residual = 0.0172226, No Iterations 2
smoothSolver:  Solving for k, Initial residual = 1, Final residual = 0.0471749, No Iterations 3
ExecutionTime = 0.47 s  ClockTime = 0 s

Time = 2

smoothSolver:  Solving for Ux, Initial residual = 0.0781088, Final residual = 0.00580983, No Iterations 6
smoothSolver:  Solving for Uy, Initial residual = 0.0943625, Final residual = 0.00763265, No Iterations 6
GAMG:  Solving for p, Initial residual = 0.124215, Final residual = 0.00903394, No Iterations 10
time step continuity errors : sum local = 8.45541, global = 0.149342, cumulative = 0.0193417
smoothSolver:  Solving for omega, Initial residual = 0.00971781, Final residual = 6.42953e-05, No Iterations 1
bounding omega, min: -3.03535e+06 max: 5.96932e+07 average: 567198
smoothSolver:  Solving for k, Initial residual = 0.257866, Final residual = 0.0143179, No Iterations 3
ExecutionTime = 0.54 s  ClockTime = 0 s

Time = 3

smoothSolver:  Solving for Ux, Initial residual = 0.0473919, Final residual = 0.00449101, No Iterations 5
smoothSolver:  Solving for Uy, Initial residual = 0.216765, Final residual = 0.0178396, No Iterations 6
GAMG:  Solving for p, Initial residual = 0.402613, Final residual = 0.0234917, No Iterations 2
time step continuity errors : sum local = 5.44374, global = -0.184011, cumulative = -0.164669
smoothSolver:  Solving for omega, Initial residual = 0.00439979, Final residual = 5.62008e-05, No Iterations 1
smoothSolver:  Solving for k, Initial residual = 0.138947, Final residual = 0.00964036, No Iterations 3
ExecutionTime = 0.57 s  ClockTime = 0 s

Time = 4

smoothSolver:  Solving for Ux, Initial residual = 0.0303325, Final residual = 0.00223005, No Iterations 6
smoothSolver:  Solving for Uy, Initial residual = 0.0935605, Final residual = 0.00655042, No Iterations 6
GAMG:  Solving for p, Initial residual = 0.188965, Final residual = 0.0117477, No Iterations 3
time step continuity errors : sum local = 1.82894, global = 0.374563, cumulative = 0.209894
smoothSolver:  Solving for omega, Initial residual = 0.00037175, Final residual = 2.97359e-05, No Iterations 1
smoothSolver:  Solving for k, Initial residual = 0.100132, Final residual = 0.00750571, No Iterations 3
ExecutionTime = 0.61 s  ClockTime = 0 s

Time = 5

smoothSolver:  Solving for Ux, Initial residual = 0.0249813, Final residual = 0.00182979, No Iterations 6
smoothSolver:  Solving for Uy, Initial residual = 0.0870499, Final residual = 0.00685415, No Iterations 6
GAMG:  Solving for p, Initial residual = 0.119351, Final residual = 0.00942677, No Iterations 2
time step continuity errors : sum local = 1.2191, global = 0.0135311, cumulative = 0.223425
smoothSolver:  Solving for omega, Initial residual = 0.000210676, Final residual = 7.93629e-06, No Iterations 2
smoothSolver:  Solving for k, Initial residual = 0.0786026, Final residual = 0.00616812, No Iterations 3
ExecutionTime = 0.65 s  ClockTime = 0 s

Time = 6

smoothSolver:  Solving for Ux, Initial residual = 0.0238862, Final residual = 0.00178184, No Iterations 6
smoothSolver:  Solving for Uy, Initial residual = 0.0662042, Final residual = 0.00516917, No Iterations 6
GAMG:  Solving for p, Initial residual = 0.116838, Final residual = 0.00892776, No Iterations 2
time step continuity errors : sum local = 0.8778, global = -0.137708, cumulative = 0.0857163
smoothSolver:  Solving for omega, Initial residual = 0.000140468, Final residual = 6.83806e-06, No Iterations 2
smoothSolver:  Solving for k, Initial residual = 0.06476, Final residual = 0.00519847, No Iterations 3
ExecutionTime = 0.69 s  ClockTime = 0 s

Time = 7

smoothSolver:  Solving for Ux, Initial residual = 0.0218722, Final residual = 0.00166869, No Iterations 6
smoothSolver:  Solving for Uy, Initial residual = 0.0419759, Final residual = 0.00317214, No Iterations 6
GAMG:  Solving for p, Initial residual = 0.0901479, Final residual = 0.00737181, No Iterations 2
time step continuity errors : sum local = 0.66792, global = -0.158868, cumulative = -0.0731515
smoothSolver:  Solving for omega, Initial residual = 0.00012411, Final residual = 6.84713e-06, No Iterations 2
smoothSolver:  Solving for k, Initial residual = 0.054847, Final residual = 0.00449121, No Iterations 3
ExecutionTime = 0.73 s  ClockTime = 0 s

Time = 8

smoothSolver:  Solving for Ux, Initial residual = 0.0198093, Final residual = 0.00154491, No Iterations 6
smoothSolver:  Solving for Uy, Initial residual = 0.0305856, Final residual = 0.00226114, No Iterations 6
GAMG:  Solving for p, Initial residual = 0.0699593, Final residual = 0.00480914, No Iterations 2
time step continuity errors : sum local = 0.445021, global = -0.117465, cumulative = -0.190617
smoothSolver:  Solving for omega, Initial residual = 0.000114863, Final residual = 7.0346e-06, No Iterations 2
smoothSolver:  Solving for k, Initial residual = 0.0474169, Final residual = 0.00394094, No Iterations 3
ExecutionTime = 0.76 s  ClockTime = 0 s

Time = 9

smoothSolver:  Solving for Ux, Initial residual = 0.0182332, Final residual = 0.00145045, No Iterations 6
smoothSolver:  Solving for Uy, Initial residual = 0.0299756, Final residual = 0.00230634, No Iterations 6
GAMG:  Solving for p, Initial residual = 0.0581694, Final residual = 0.00410316, No Iterations 1
time step continuity errors : sum local = 0.386094, global = -0.058082, cumulative = -0.248699
smoothSolver:  Solving for omega, Initial residual = 0.000114785, Final residual = 7.31697e-06, No Iterations 2
smoothSolver:  Solving for k, Initial residual = 0.0416043, Final residual = 0.00349718, No Iterations 3
ExecutionTime = 0.8 s  ClockTime = 0 s

Time = 10

smoothSolver:  Solving for Ux, Initial residual = 0.0169285, Final residual = 0.00136319, No Iterations 6
smoothSolver:  Solving for Uy, Initial residual = 0.0290342, Final residual = 0.00228059, No Iterations 6
GAMG:  Solving for p, Initial residual = 0.0524966, Final residual = 0.0048011, No Iterations 1
time step continuity errors : sum local = 0.449696, global = -0.0231168, cumulative = -0.271816
smoothSolver:  Solving for omega, Initial residual = 0.000107012, Final residual = 7.50866e-06, No Iterations 2
smoothSolver:  Solving for k, Initial residual = 0.0369634, Final residual = 0.00313266, No Iterations 3
ExecutionTime = 0.84 s  ClockTime = 0 s

Time = 11

smoothSolver:  Solving for Ux, Initial residual = 0.0157212, Final residual = 0.00127464, No Iterations 6
smoothSolver:  Solving for Uy, Initial residual = 0.0284488, Final residual = 0.00226113, No Iterations 6
GAMG:  Solving for p, Initial residual = 0.047259, Final residual = 0.00204733, No Iterations 2
time step continuity errors : sum local = 0.189478, global = 0.000210021, cumulative = -0.271606
smoothSolver:  Solving for omega, Initial residual = 0.000101893, Final residual = 7.49739e-06, No Iterations 2
smoothSolver:  Solving for k, Initial residual = 0.0330912, Final residual = 0.00280395, No Iterations 3
ExecutionTime = 0.88 s  ClockTime = 1 s

Time = 12

smoothSolver:  Solving for Ux, Initial residual = 0.0144814, Final residual = 0.00116187, No Iterations 6
smoothSolver:  Solving for Uy, Initial residual = 0.0254749, Final residual = 0.00203138, No Iterations 6
GAMG:  Solving for p, Initial residual = 0.0425631, Final residual = 0.00212602, No Iterations 2
time step continuity errors : sum local = 0.193208, global = -0.00997405, cumulative = -0.28158
smoothSolver:  Solving for omega, Initial residual = 8.42983e-05, Final residual = 7.16992e-06, No Iterations 2
smoothSolver:  Solving for k, Initial residual = 0.030028, Final residual = 0.00253317, No Iterations 3
ExecutionTime = 0.92 s  ClockTime = 1 s

Time = 13

smoothSolver:  Solving for Ux, Initial residual = 0.0133243, Final residual = 0.00106876, No Iterations 6
smoothSolver:  Solving for Uy, Initial residual = 0.0230048, Final residual = 0.0018418, No Iterations 6
GAMG:  Solving for p, Initial residual = 0.0408721, Final residual = 0.00359613, No Iterations 1
time step continuity errors : sum local = 0.312752, global = 0.0216073, cumulative = -0.259972
smoothSolver:  Solving for omega, Initial residual = 6.56087e-05, Final residual = 2.63995e-06, No Iterations 3
smoothSolver:  Solving for k, Initial residual = 0.0275064, Final residual = 0.00231185, No Iterations 3
ExecutionTime = 0.95 s  ClockTime = 1 s

Time = 14

smoothSolver:  Solving for Ux, Initial residual = 0.0124994, Final residual = 0.00100818, No Iterations 6
smoothSolver:  Solving for Uy, Initial residual = 0.0214278, Final residual = 0.00172371, No Iterations 6
GAMG:  Solving for p, Initial residual = 0.0415727, Final residual = 0.00193808, No Iterations 2
time step continuity errors : sum local = 0.163442, global = 0.00743481, cumulative = -0.252538
smoothSolver:  Solving for omega, Initial residual = 6.2798e-05, Final residual = 2.77982e-06, No Iterations 3
smoothSolver:  Solving for k, Initial residual = 0.0255424, Final residual = 0.00211238, No Iterations 3
ExecutionTime = 0.99 s  ClockTime = 1 s

Time = 15

smoothSolver:  Solving for Ux, Initial residual = 0.0114624, Final residual = 0.000908354, No Iterations 6
smoothSolver:  Solving for Uy, Initial residual = 0.0199954, Final residual = 0.00158903, No Iterations 6
GAMG:  Solving for p, Initial residual = 0.039437, Final residual = 0.00122689, No Iterations 2
time step continuity errors : sum local = 0.0972315, global = 0.000808507, cumulative = -0.251729
smoothSolver:  Solving for omega, Initial residual = 5.38616e-05, Final residual = 2.59881e-06, No Iterations 3
smoothSolver:  Solving for k, Initial residual = 0.0238402, Final residual = 0.00195953, No Iterations 3
ExecutionTime = 1.03 s  ClockTime = 1 s

Time = 16

smoothSolver:  Solving for Ux, Initial residual = 0.0106807, Final residual = 0.000842207, No Iterations 6
smoothSolver:  Solving for Uy, Initial residual = 0.0181714, Final residual = 0.00146641, No Iterations 6
GAMG:  Solving for p, Initial residual = 0.036746, Final residual = 0.00133485, No Iterations 2
time step continuity errors : sum local = 0.103395, global = -0.0101325, cumulative = -0.261862
smoothSolver:  Solving for omega, Initial residual = 5.14599e-05, Final residual = 2.96021e-06, No Iterations 3
smoothSolver:  Solving for k, Initial residual = 0.0223594, Final residual = 0.00183998, No Iterations 3
ExecutionTime = 1.07 s  ClockTime = 1 s

Time = 17

smoothSolver:  Solving for Ux, Initial residual = 0.00982713, Final residual = 0.000771624, No Iterations 6
smoothSolver:  Solving for Uy, Initial residual = 0.0168095, Final residual = 0.00136074, No Iterations 6
GAMG:  Solving for p, Initial residual = 0.0345724, Final residual = 0.00183972, No Iterations 2
time step continuity errors : sum local = 0.138195, global = -0.0216479, cumulative = -0.283509
smoothSolver:  Solving for omega, Initial residual = 5.17153e-05, Final residual = 3.18755e-06, No Iterations 3
smoothSolver:  Solving for k, Initial residual = 0.0211116, Final residual = 0.00174313, No Iterations 3
ExecutionTime = 1.1 s  ClockTime = 1 s

Time = 18

smoothSolver:  Solving for Ux, Initial residual = 0.00900001, Final residual = 0.000701896, No Iterations 6
smoothSolver:  Solving for Uy, Initial residual = 0.01531, Final residual = 0.0012385, No Iterations 6
GAMG:  Solving for p, Initial residual = 0.0335731, Final residual = 0.00228293, No Iterations 2
time step continuity errors : sum local = 0.16502, global = -0.0244753, cumulative = -0.307985
smoothSolver:  Solving for omega, Initial residual = 5.04764e-05, Final residual = 3.31223e-06, No Iterations 3
smoothSolver:  Solving for k, Initial residual = 0.020064, Final residual = 0.00166047, No Iterations 3
ExecutionTime = 1.14 s  ClockTime = 1 s

Time = 19

smoothSolver:  Solving for Ux, Initial residual = 0.00828965, Final residual = 0.000639998, No Iterations 6
smoothSolver:  Solving for Uy, Initial residual = 0.0142508, Final residual = 0.00115688, No Iterations 6
GAMG:  Solving for p, Initial residual = 0.0324978, Final residual = 0.00243732, No Iterations 2
time step continuity errors : sum local = 0.169678, global = -0.0204173, cumulative = -0.328402
smoothSolver:  Solving for omega, Initial residual = 5.39842e-05, Final residual = 3.65064e-06, No Iterations 3
smoothSolver:  Solving for k, Initial residual = 0.0191616, Final residual = 0.00158705, No Iterations 3
ExecutionTime = 1.18 s  ClockTime = 1 s

Time = 20

smoothSolver:  Solving for Ux, Initial residual = 0.00759753, Final residual = 0.000579003, No Iterations 6
smoothSolver:  Solving for Uy, Initial residual = 0.0133016, Final residual = 0.00108346, No Iterations 6
GAMG:  Solving for p, Initial residual = 0.0311543, Final residual = 0.00229215, No Iterations 2
time step continuity errors : sum local = 0.154151, global = -0.0136952, cumulative = -0.342097
smoothSolver:  Solving for omega, Initial residual = 5.56083e-05, Final residual = 3.83793e-06, No Iterations 3
smoothSolver:  Solving for k, Initial residual = 0.018359, Final residual = 0.00152151, No Iterations 3
ExecutionTime = 1.21 s  ClockTime = 1 s

Time = 21

smoothSolver:  Solving for Ux, Initial residual = 0.00694697, Final residual = 0.000521488, No Iterations 6
smoothSolver:  Solving for Uy, Initial residual = 0.0124383, Final residual = 0.00101426, No Iterations 6
GAMG:  Solving for p, Initial residual = 0.0305775, Final residual = 0.00181032, No Iterations 2
time step continuity errors : sum local = 0.117512, global = -0.00273758, cumulative = -0.344835
smoothSolver:  Solving for omega, Initial residual = 5.60387e-05, Final residual = 3.89836e-06, No Iterations 3
smoothSolver:  Solving for k, Initial residual = 0.0176336, Final residual = 0.00146489, No Iterations 3
ExecutionTime = 1.25 s  ClockTime = 1 s

Time = 22

smoothSolver:  Solving for Ux, Initial residual = 0.00637669, Final residual = 0.000470657, No Iterations 6
smoothSolver:  Solving for Uy, Initial residual = 0.0122714, Final residual = 0.000964074, No Iterations 6
GAMG:  Solving for p, Initial residual = 0.0289927, Final residual = 0.00158377, No Iterations 2
time step continuity errors : sum local = 0.0990385, global = -0.00430748, cumulative = -0.349142
smoothSolver:  Solving for omega, Initial residual = 5.76425e-05, Final residual = 4.02344e-06, No Iterations 3
smoothSolver:  Solving for k, Initial residual = 0.016957, Final residual = 0.00141283, No Iterations 3
ExecutionTime = 1.3 s  ClockTime = 1 s

Time = 23

smoothSolver:  Solving for Ux, Initial residual = 0.00584478, Final residual = 0.000425102, No Iterations 6
smoothSolver:  Solving for Uy, Initial residual = 0.0107773, Final residual = 0.000881261, No Iterations 6
GAMG:  Solving for p, Initial residual = 0.0278904, Final residual = 0.00150115, No Iterations 2
time step continuity errors : sum local = 0.0906308, global = -0.00630344, cumulative = -0.355446
smoothSolver:  Solving for omega, Initial residual = 5.72074e-05, Final residual = 4.02805e-06, No Iterations 3
smoothSolver:  Solving for k, Initial residual = 0.0163116, Final residual = 0.00136513, No Iterations 3
ExecutionTime = 1.34 s  ClockTime = 1 s

Time = 24

smoothSolver:  Solving for Ux, Initial residual = 0.00537728, Final residual = 0.000385061, No Iterations 6
smoothSolver:  Solving for Uy, Initial residual = 0.0100407, Final residual = 0.00082292, No Iterations 6
GAMG:  Solving for p, Initial residual = 0.0265619, Final residual = 0.0014224, No Iterations 2
time step continuity errors : sum local = 0.0831564, global = -0.00514073, cumulative = -0.360586
smoothSolver:  Solving for omega, Initial residual = 5.74816e-05, Final residual = 4.07101e-06, No Iterations 3
smoothSolver:  Solving for k, Initial residual = 0.0157427, Final residual = 0.00132276, No Iterations 3
ExecutionTime = 1.38 s  ClockTime = 1 s

Time = 25

smoothSolver:  Solving for Ux, Initial residual = 0.00496188, Final residual = 0.000349015, No Iterations 6
smoothSolver:  Solving for Uy, Initial residual = 0.00932752, Final residual = 0.000765336, No Iterations 6
GAMG:  Solving for p, Initial residual = 0.0254635, Final residual = 0.00140176, No Iterations 2
time step continuity errors : sum local = 0.0796158, global = -0.00511082, cumulative = -0.365697
smoothSolver:  Solving for omega, Initial residual = 5.81618e-05, Final residual = 4.13798e-06, No Iterations 3
smoothSolver:  Solving for k, Initial residual = 0.0152439, Final residual = 0.00128586, No Iterations 3
ExecutionTime = 1.42 s  ClockTime = 1 s

Time = 26

smoothSolver:  Solving for Ux, Initial residual = 0.00458104, Final residual = 0.000316212, No Iterations 6
smoothSolver:  Solving for Uy, Initial residual = 0.00857364, Final residual = 0.000703494, No Iterations 6
GAMG:  Solving for p, Initial residual = 0.0246415, Final residual = 0.00142755, No Iterations 2
time step continuity errors : sum local = 0.0788865, global = -0.00645442, cumulative = -0.372152
smoothSolver:  Solving for omega, Initial residual = 5.76141e-05, Final residual = 4.11384e-06, No Iterations 3
smoothSolver:  Solving for k, Initial residual = 0.0147902, Final residual = 0.00125262, No Iterations 3
ExecutionTime = 1.45 s  ClockTime = 1 s

Time = 27

smoothSolver:  Solving for Ux, Initial residual = 0.00425443, Final residual = 0.000288094, No Iterations 6
smoothSolver:  Solving for Uy, Initial residual = 0.00792569, Final residual = 0.000650233, No Iterations 6
GAMG:  Solving for p, Initial residual = 0.0240156, Final residual = 0.00141779, No Iterations 2
time step continuity errors : sum local = 0.0763059, global = -0.00723438, cumulative = -0.379386
smoothSolver:  Solving for omega, Initial residual = 5.84067e-05, Final residual = 4.1849e-06, No Iterations 3
smoothSolver:  Solving for k, Initial residual = 0.0143753, Final residual = 0.00122255, No Iterations 3
ExecutionTime = 1.49 s  ClockTime = 1 s

Time = 28

smoothSolver:  Solving for Ux, Initial residual = 0.00395734, Final residual = 0.000262531, No Iterations 6
smoothSolver:  Solving for Uy, Initial residual = 0.00738828, Final residual = 0.000606, No Iterations 6
GAMG:  Solving for p, Initial residual = 0.0233537, Final residual = 0.00139657, No Iterations 2
time step continuity errors : sum local = 0.0734037, global = -0.00771349, cumulative = -0.387099
smoothSolver:  Solving for omega, Initial residual = 5.80655e-05, Final residual = 4.17041e-06, No Iterations 3
smoothSolver:  Solving for k, Initial residual = 0.0140054, Final residual = 0.00119633, No Iterations 3
ExecutionTime = 1.53 s  ClockTime = 1 s

Time = 29

smoothSolver:  Solving for Ux, Initial residual = 0.00368301, Final residual = 0.000363172, No Iterations 5
smoothSolver:  Solving for Uy, Initial residual = 0.00693933, Final residual = 0.000565659, No Iterations 6
GAMG:  Solving for p, Initial residual = 0.0227209, Final residual = 0.00135897, No Iterations 2
time step continuity errors : sum local = 0.0697894, global = -0.00918264, cumulative = -0.396282
smoothSolver:  Solving for omega, Initial residual = 5.578e-05, Final residual = 4.03373e-06, No Iterations 3
smoothSolver:  Solving for k, Initial residual = 0.0136832, Final residual = 0.00117395, No Iterations 3
ExecutionTime = 1.57 s  ClockTime = 1 s

Time = 30

smoothSolver:  Solving for Ux, Initial residual = 0.00344506, Final residual = 0.000332958, No Iterations 5
smoothSolver:  Solving for Uy, Initial residual = 0.00633446, Final residual = 0.000518781, No Iterations 6
GAMG:  Solving for p, Initial residual = 0.0221023, Final residual = 0.0019752, No Iterations 2
time step continuity errors : sum local = 0.0992249, global = -0.0124825, cumulative = -0.408765
smoothSolver:  Solving for omega, Initial residual = 5.42213e-05, Final residual = 3.92315e-06, No Iterations 3
smoothSolver:  Solving for k, Initial residual = 0.0134003, Final residual = 0.00115479, No Iterations 3
ExecutionTime = 1.6 s  ClockTime = 1 s

Time = 31

smoothSolver:  Solving for Ux, Initial residual = 0.00324032, Final residual = 0.000306672, No Iterations 5
smoothSolver:  Solving for Uy, Initial residual = 0.00588769, Final residual = 0.000481857, No Iterations 6
GAMG:  Solving for p, Initial residual = 0.0220051, Final residual = 0.00209232, No Iterations 2
time step continuity errors : sum local = 0.103082, global = -0.00642714, cumulative = -0.415192
smoothSolver:  Solving for omega, Initial residual = 5.37979e-05, Final residual = 3.89305e-06, No Iterations 3
smoothSolver:  Solving for k, Initial residual = 0.0131543, Final residual = 0.00113841, No Iterations 3
ExecutionTime = 1.65 s  ClockTime = 1 s

Time = 32

smoothSolver:  Solving for Ux, Initial residual = 0.00305835, Final residual = 0.000283224, No Iterations 5
smoothSolver:  Solving for Uy, Initial residual = 0.00555695, Final residual = 0.000454913, No Iterations 6
GAMG:  Solving for p, Initial residual = 0.0211138, Final residual = 0.00148219, No Iterations 2
time step continuity errors : sum local = 0.0719979, global = -0.00681981, cumulative = -0.422012
smoothSolver:  Solving for omega, Initial residual = 5.41935e-05, Final residual = 3.92003e-06, No Iterations 3
smoothSolver:  Solving for k, Initial residual = 0.0129323, Final residual = 0.00112419, No Iterations 3
ExecutionTime = 1.68 s  ClockTime = 1 s

Time = 33

smoothSolver:  Solving for Ux, Initial residual = 0.00289199, Final residual = 0.000262717, No Iterations 5
smoothSolver:  Solving for Uy, Initial residual = 0.00516385, Final residual = 0.00042267, No Iterations 6
GAMG:  Solving for p, Initial residual = 0.020983, Final residual = 0.00154778, No Iterations 2
time step continuity errors : sum local = 0.0739961, global = -0.00776611, cumulative = -0.429778
smoothSolver:  Solving for omega, Initial residual = 5.23762e-05, Final residual = 3.79934e-06, No Iterations 3
smoothSolver:  Solving for k, Initial residual = 0.0127527, Final residual = 0.00111268, No Iterations 3
ExecutionTime = 1.72 s  ClockTime = 1 s

Time = 34

smoothSolver:  Solving for Ux, Initial residual = 0.00272411, Final residual = 0.000242097, No Iterations 5
smoothSolver:  Solving for Uy, Initial residual = 0.0048668, Final residual = 0.000398326, No Iterations 6
GAMG:  Solving for p, Initial residual = 0.0206314, Final residual = 0.00188508, No Iterations 2
time step continuity errors : sum local = 0.0886001, global = -0.00800711, cumulative = -0.437785
smoothSolver:  Solving for omega, Initial residual = 4.76979e-05, Final residual = 3.45436e-06, No Iterations 3
smoothSolver:  Solving for k, Initial residual = 0.0126052, Final residual = 0.0011037, No Iterations 3
ExecutionTime = 1.75 s  ClockTime = 1 s

Time = 35

smoothSolver:  Solving for Ux, Initial residual = 0.00258397, Final residual = 0.000224659, No Iterations 5
smoothSolver:  Solving for Uy, Initial residual = 0.00457427, Final residual = 0.000374451, No Iterations 6
GAMG:  Solving for p, Initial residual = 0.0202857, Final residual = 0.00182489, No Iterations 2
time step continuity errors : sum local = 0.0845468, global = -0.00634513, cumulative = -0.44413
smoothSolver:  Solving for omega, Initial residual = 4.55889e-05, Final residual = 3.29891e-06, No Iterations 3
smoothSolver:  Solving for k, Initial residual = 0.0124914, Final residual = 0.00109732, No Iterations 3
ExecutionTime = 1.79 s  ClockTime = 1 s

Time = 36

smoothSolver:  Solving for Ux, Initial residual = 0.00246798, Final residual = 0.000210114, No Iterations 5
smoothSolver:  Solving for Uy, Initial residual = 0.00431929, Final residual = 0.000353559, No Iterations 6
GAMG:  Solving for p, Initial residual = 0.0198019, Final residual = 0.00148795, No Iterations 2
time step continuity errors : sum local = 0.0679946, global = -0.00560884, cumulative = -0.449739
smoothSolver:  Solving for omega, Initial residual = 4.50505e-05, Final residual = 3.25506e-06, No Iterations 3
smoothSolver:  Solving for k, Initial residual = 0.0124066, Final residual = 0.00109313, No Iterations 3
ExecutionTime = 1.84 s  ClockTime = 1 s

Time = 37

smoothSolver:  Solving for Ux, Initial residual = 0.00235899, Final residual = 0.000196729, No Iterations 5
smoothSolver:  Solving for Uy, Initial residual = 0.00406616, Final residual = 0.000332801, No Iterations 6
GAMG:  Solving for p, Initial residual = 0.0195002, Final residual = 0.00148585, No Iterations 2
time step continuity errors : sum local = 0.066877, global = -0.00555444, cumulative = -0.455293
smoothSolver:  Solving for omega, Initial residual = 4.3672e-05, Final residual = 3.15124e-06, No Iterations 3
smoothSolver:  Solving for k, Initial residual = 0.0123527, Final residual = 0.00109135, No Iterations 3
ExecutionTime = 1.87 s  ClockTime = 2 s

Time = 38

smoothSolver:  Solving for Ux, Initial residual = 0.00225474, Final residual = 0.000184161, No Iterations 5
smoothSolver:  Solving for Uy, Initial residual = 0.00384202, Final residual = 0.000314274, No Iterations 6
GAMG:  Solving for p, Initial residual = 0.0192295, Final residual = 0.00146211, No Iterations 2
time step continuity errors : sum local = 0.0648245, global = -0.00542866, cumulative = -0.460722
smoothSolver:  Solving for omega, Initial residual = 4.1086e-05, Final residual = 2.9575e-06, No Iterations 3
smoothSolver:  Solving for k, Initial residual = 0.0123419, Final residual = 0.00109314, No Iterations 3
ExecutionTime = 1.91 s  ClockTime = 2 s

Time = 39

smoothSolver:  Solving for Ux, Initial residual = 0.00215286, Final residual = 0.000172157, No Iterations 5
smoothSolver:  Solving for Uy, Initial residual = 0.00365647, Final residual = 0.00029703, No Iterations 6
GAMG:  Solving for p, Initial residual = 0.0206379, Final residual = 0.00193502, No Iterations 1
time step continuity errors : sum local = 0.0848194, global = 0.00241258, cumulative = -0.458309
smoothSolver:  Solving for omega, Initial residual = 3.71612e-05, Final residual = 2.65822e-06, No Iterations 3
smoothSolver:  Solving for k, Initial residual = 0.0123837, Final residual = 0.00109779, No Iterations 3
ExecutionTime = 1.95 s  ClockTime = 2 s

Time = 40

smoothSolver:  Solving for Ux, Initial residual = 0.00207472, Final residual = 0.000163355, No Iterations 5
smoothSolver:  Solving for Uy, Initial residual = 0.00488423, Final residual = 0.000434999, No Iterations 5
GAMG:  Solving for p, Initial residual = 0.0198658, Final residual = 0.00193585, No Iterations 2
time step continuity errors : sum local = 0.0840537, global = 0.0069548, cumulative = -0.451354
smoothSolver:  Solving for omega, Initial residual = 3.57387e-05, Final residual = 2.54849e-06, No Iterations 3
smoothSolver:  Solving for k, Initial residual = 0.0125717, Final residual = 0.00110588, No Iterations 3
ExecutionTime = 1.98 s  ClockTime = 2 s

Time = 41

smoothSolver:  Solving for Ux, Initial residual = 0.00199762, Final residual = 0.000152998, No Iterations 5
smoothSolver:  Solving for Uy, Initial residual = 0.00333388, Final residual = 0.00027177, No Iterations 6
GAMG:  Solving for p, Initial residual = 0.0193805, Final residual = 0.00180088, No Iterations 1
time step continuity errors : sum local = 0.0776283, global = 0.0119213, cumulative = -0.439433
smoothSolver:  Solving for omega, Initial residual = 3.43777e-05, Final residual = 2.41423e-06, No Iterations 3
smoothSolver:  Solving for k, Initial residual = 0.0125081, Final residual = 0.00111318, No Iterations 3
ExecutionTime = 2.02 s  ClockTime = 2 s

Time = 42

smoothSolver:  Solving for Ux, Initial residual = 0.00192398, Final residual = 0.0001451, No Iterations 5
smoothSolver:  Solving for Uy, Initial residual = 0.00310466, Final residual = 0.00025369, No Iterations 6
GAMG:  Solving for p, Initial residual = 0.0190135, Final residual = 0.000677274, No Iterations 3
time step continuity errors : sum local = 0.028943, global = 0.00394366, cumulative = -0.43549
smoothSolver:  Solving for omega, Initial residual = 3.17951e-05, Final residual = 2.25226e-06, No Iterations 3
smoothSolver:  Solving for k, Initial residual = 0.0126003, Final residual = 0.00112361, No Iterations 3
ExecutionTime = 2.06 s  ClockTime = 2 s

Time = 43

smoothSolver:  Solving for Ux, Initial residual = 0.00186185, Final residual = 0.000137511, No Iterations 5
smoothSolver:  Solving for Uy, Initial residual = 0.00296323, Final residual = 0.000241416, No Iterations 6
GAMG:  Solving for p, Initial residual = 0.0190761, Final residual = 0.00165271, No Iterations 1
time step continuity errors : sum local = 0.0692047, global = 0.00344423, cumulative = -0.432045
smoothSolver:  Solving for omega, Initial residual = 3.00477e-05, Final residual = 2.0989e-06, No Iterations 3
smoothSolver:  Solving for k, Initial residual = 0.0126919, Final residual = 0.00113209, No Iterations 3
ExecutionTime = 2.09 s  ClockTime = 2 s

Time = 44

smoothSolver:  Solving for Ux, Initial residual = 0.00179619, Final residual = 0.000130537, No Iterations 5
smoothSolver:  Solving for Uy, Initial residual = 0.00281503, Final residual = 0.000229502, No Iterations 6
GAMG:  Solving for p, Initial residual = 0.0182261, Final residual = 0.00151029, No Iterations 2
time step continuity errors : sum local = 0.0627182, global = -0.00512262, cumulative = -0.437168
smoothSolver:  Solving for omega, Initial residual = 2.67666e-05, Final residual = 1.88174e-06, No Iterations 3
smoothSolver:  Solving for k, Initial residual = 0.0127882, Final residual = 0.00114151, No Iterations 3
ExecutionTime = 2.13 s  ClockTime = 2 s

Time = 45

smoothSolver:  Solving for Ux, Initial residual = 0.00174269, Final residual = 0.000123905, No Iterations 5
smoothSolver:  Solving for Uy, Initial residual = 0.00266943, Final residual = 0.000217696, No Iterations 6
GAMG:  Solving for p, Initial residual = 0.0173093, Final residual = 0.00150672, No Iterations 2
time step continuity errors : sum local = 0.0617042, global = 0.00333309, cumulative = -0.433835
smoothSolver:  Solving for omega, Initial residual = 2.54518e-05, Final residual = 1.75629e-06, No Iterations 3
smoothSolver:  Solving for k, Initial residual = 0.0128828, Final residual = 0.00115178, No Iterations 3
ExecutionTime = 2.17 s  ClockTime = 2 s

Time = 46

smoothSolver:  Solving for Ux, Initial residual = 0.00169128, Final residual = 0.000118231, No Iterations 5
smoothSolver:  Solving for Uy, Initial residual = 0.00260478, Final residual = 0.000213145, No Iterations 6
GAMG:  Solving for p, Initial residual = 0.0163986, Final residual = 0.00106304, No Iterations 2
time step continuity errors : sum local = 0.0433732, global = -0.000294957, cumulative = -0.43413
smoothSolver:  Solving for omega, Initial residual = 2.34858e-05, Final residual = 1.60979e-06, No Iterations 3
smoothSolver:  Solving for k, Initial residual = 0.0129694, Final residual = 0.00116088, No Iterations 3
ExecutionTime = 2.21 s  ClockTime = 2 s

Time = 47

smoothSolver:  Solving for Ux, Initial residual = 0.00164312, Final residual = 0.000112884, No Iterations 5
smoothSolver:  Solving for Uy, Initial residual = 0.00242839, Final residual = 0.000198268, No Iterations 6
GAMG:  Solving for p, Initial residual = 0.0163743, Final residual = 0.00133968, No Iterations 2
time step continuity errors : sum local = 0.0541807, global = -0.00212626, cumulative = -0.436256
smoothSolver:  Solving for omega, Initial residual = 2.17239e-05, Final residual = 1.464e-06, No Iterations 3
smoothSolver:  Solving for k, Initial residual = 0.0130431, Final residual = 0.00116835, No Iterations 3
ExecutionTime = 2.24 s  ClockTime = 2 s

Time = 48

smoothSolver:  Solving for Ux, Initial residual = 0.00159701, Final residual = 0.000107823, No Iterations 5
smoothSolver:  Solving for Uy, Initial residual = 0.00235179, Final residual = 0.000192177, No Iterations 6
GAMG:  Solving for p, Initial residual = 0.0157188, Final residual = 0.00113771, No Iterations 2
time step continuity errors : sum local = 0.0455149, global = -0.00347136, cumulative = -0.439727
smoothSolver:  Solving for omega, Initial residual = 1.98415e-05, Final residual = 1.31202e-06, No Iterations 3
smoothSolver:  Solving for k, Initial residual = 0.0131145, Final residual = 0.00117788, No Iterations 3
ExecutionTime = 2.28 s  ClockTime = 2 s

Time = 49

smoothSolver:  Solving for Ux, Initial residual = 0.00155513, Final residual = 0.000103227, No Iterations 5
smoothSolver:  Solving for Uy, Initial residual = 0.00224571, Final residual = 0.000183688, No Iterations 6
GAMG:  Solving for p, Initial residual = 0.0150625, Final residual = 0.00112601, No Iterations 2
time step continuity errors : sum local = 0.0446988, global = -0.00315141, cumulative = -0.442879
smoothSolver:  Solving for omega, Initial residual = 1.83293e-05, Final residual = 1.18417e-06, No Iterations 3
smoothSolver:  Solving for k, Initial residual = 0.0131772, Final residual = 0.00118484, No Iterations 3
ExecutionTime = 2.32 s  ClockTime = 2 s

Time = 50

smoothSolver:  Solving for Ux, Initial residual = 0.00151605, Final residual = 9.89811e-05, No Iterations 5
smoothSolver:  Solving for Uy, Initial residual = 0.00215375, Final residual = 0.000176265, No Iterations 6
GAMG:  Solving for p, Initial residual = 0.0145583, Final residual = 0.000766609, No Iterations 2
time step continuity errors : sum local = 0.0302086, global = -0.00233953, cumulative = -0.445218
smoothSolver:  Solving for omega, Initial residual = 1.69121e-05, Final residual = 1.06726e-06, No Iterations 3
smoothSolver:  Solving for k, Initial residual = 0.0132292, Final residual = 0.00119107, No Iterations 3
ExecutionTime = 2.35 s  ClockTime = 2 s

Time = 51

smoothSolver:  Solving for Ux, Initial residual = 0.00148098, Final residual = 0.000147872, No Iterations 4
smoothSolver:  Solving for Uy, Initial residual = 0.00206625, Final residual = 0.000169075, No Iterations 6
GAMG:  Solving for p, Initial residual = 0.0139278, Final residual = 0.000857051, No Iterations 2
time step continuity errors : sum local = 0.0335269, global = -0.00214021, cumulative = -0.447359
smoothSolver:  Solving for omega, Initial residual = 1.56486e-05, Final residual = 9.74132e-07, No Iterations 3
smoothSolver:  Solving for k, Initial residual = 0.0132686, Final residual = 0.00119534, No Iterations 3
ExecutionTime = 2.39 s  ClockTime = 2 s

Time = 52

smoothSolver:  Solving for Ux, Initial residual = 0.00144649, Final residual = 0.000142696, No Iterations 4
smoothSolver:  Solving for Uy, Initial residual = 0.0019532, Final residual = 0.000159654, No Iterations 6
GAMG:  Solving for p, Initial residual = 0.0134712, Final residual = 0.000858714, No Iterations 2
time step continuity errors : sum local = 0.0333515, global = -0.00231962, cumulative = -0.449678
smoothSolver:  Solving for omega, Initial residual = 1.43331e-05, Final residual = 8.69538e-07, No Iterations 3
smoothSolver:  Solving for k, Initial residual = 0.0132928, Final residual = 0.00119831, No Iterations 3
ExecutionTime = 2.44 s  ClockTime = 2 s

Time = 53

smoothSolver:  Solving for Ux, Initial residual = 0.00141688, Final residual = 0.000138093, No Iterations 4
smoothSolver:  Solving for Uy, Initial residual = 0.00187183, Final residual = 0.000152977, No Iterations 6
GAMG:  Solving for p, Initial residual = 0.0130956, Final residual = 0.000871873, No Iterations 2
time step continuity errors : sum local = 0.033628, global = -0.00232429, cumulative = -0.452002
smoothSolver:  Solving for omega, Initial residual = 1.34713e-05, Final residual = 8.01769e-07, No Iterations 3
smoothSolver:  Solving for k, Initial residual = 0.0133108, Final residual = 0.00120107, No Iterations 3
ExecutionTime = 2.48 s  ClockTime = 2 s

Time = 54

smoothSolver:  Solving for Ux, Initial residual = 0.0013868, Final residual = 0.000133535, No Iterations 4
smoothSolver:  Solving for Uy, Initial residual = 0.00180366, Final residual = 0.000147429, No Iterations 6
GAMG:  Solving for p, Initial residual = 0.0127317, Final residual = 0.000764191, No Iterations 2
time step continuity errors : sum local = 0.0292849, global = -0.00209342, cumulative = -0.454096
smoothSolver:  Solving for omega, Initial residual = 1.2483e-05, Final residual = 7.30047e-07, No Iterations 3
smoothSolver:  Solving for k, Initial residual = 0.0133205, Final residual = 0.00120305, No Iterations 3
ExecutionTime = 2.52 s  ClockTime = 2 s

Time = 55

smoothSolver:  Solving for Ux, Initial residual = 0.00135909, Final residual = 0.000129311, No Iterations 4
smoothSolver:  Solving for Uy, Initial residual = 0.00174287, Final residual = 0.000142453, No Iterations 6
GAMG:  Solving for p, Initial residual = 0.0123002, Final residual = 0.00073385, No Iterations 2
time step continuity errors : sum local = 0.0279634, global = -0.00175459, cumulative = -0.45585
smoothSolver:  Solving for omega, Initial residual = 1.16985e-05, Final residual = 6.76449e-07, No Iterations 3
smoothSolver:  Solving for k, Initial residual = 0.0133134, Final residual = 0.00120385, No Iterations 3
ExecutionTime = 2.56 s  ClockTime = 2 s

Time = 56

smoothSolver:  Solving for Ux, Initial residual = 0.00133408, Final residual = 0.000125441, No Iterations 4
smoothSolver:  Solving for Uy, Initial residual = 0.00168737, Final residual = 0.00013786, No Iterations 6
GAMG:  Solving for p, Initial residual = 0.0119154, Final residual = 0.000715518, No Iterations 2
time step continuity errors : sum local = 0.027114, global = -0.00154077, cumulative = -0.457391
smoothSolver:  Solving for omega, Initial residual = 1.11913e-05, Final residual = 6.42715e-07, No Iterations 3
smoothSolver:  Solving for k, Initial residual = 0.0132922, Final residual = 0.00120382, No Iterations 3
ExecutionTime = 2.6 s  ClockTime = 2 s

Time = 57

smoothSolver:  Solving for Ux, Initial residual = 0.0013091, Final residual = 0.000121678, No Iterations 4
smoothSolver:  Solving for Uy, Initial residual = 0.00163463, Final residual = 0.000133539, No Iterations 6
GAMG:  Solving for p, Initial residual = 0.0115796, Final residual = 0.000730352, No Iterations 2
time step continuity errors : sum local = 0.0275272, global = -0.00145284, cumulative = -0.458844
smoothSolver:  Solving for omega, Initial residual = 1.065e-05, Final residual = 6.09927e-07, No Iterations 3
smoothSolver:  Solving for k, Initial residual = 0.013266, Final residual = 0.00120433, No Iterations 3
ExecutionTime = 2.64 s  ClockTime = 2 s

Time = 58

smoothSolver:  Solving for Ux, Initial residual = 0.0012857, Final residual = 0.00011815, No Iterations 4
smoothSolver:  Solving for Uy, Initial residual = 0.00158536, Final residual = 0.000129557, No Iterations 6
GAMG:  Solving for p, Initial residual = 0.011257, Final residual = 0.000706083, No Iterations 2
time step continuity errors : sum local = 0.0264591, global = -0.0014011, cumulative = -0.460245
smoothSolver:  Solving for omega, Initial residual = 1.02654e-05, Final residual = 5.89917e-07, No Iterations 3
smoothSolver:  Solving for k, Initial residual = 0.0132279, Final residual = 0.00120232, No Iterations 3
ExecutionTime = 2.67 s  ClockTime = 2 s

Time = 59

smoothSolver:  Solving for Ux, Initial residual = 0.00126237, Final residual = 0.000114715, No Iterations 4
smoothSolver:  Solving for Uy, Initial residual = 0.00153784, Final residual = 0.000125687, No Iterations 6
GAMG:  Solving for p, Initial residual = 0.0109732, Final residual = 0.000676916, No Iterations 2
time step continuity errors : sum local = 0.0252295, global = -0.00130491, cumulative = -0.46155
smoothSolver:  Solving for omega, Initial residual = 9.86133e-06, Final residual = 5.69692e-07, No Iterations 3
smoothSolver:  Solving for k, Initial residual = 0.0131738, Final residual = 0.00119979, No Iterations 3
ExecutionTime = 2.7 s  ClockTime = 2 s

Time = 60

smoothSolver:  Solving for Ux, Initial residual = 0.00123993, Final residual = 0.000111409, No Iterations 4
smoothSolver:  Solving for Uy, Initial residual = 0.00149382, Final residual = 0.000121973, No Iterations 6
GAMG:  Solving for p, Initial residual = 0.0106937, Final residual = 0.000643829, No Iterations 2
time step continuity errors : sum local = 0.0238769, global = -0.00117321, cumulative = -0.462723
smoothSolver:  Solving for omega, Initial residual = 9.54364e-06, Final residual = 5.49692e-07, No Iterations 3
smoothSolver:  Solving for k, Initial residual = 0.0131083, Final residual = 0.00119704, No Iterations 3
ExecutionTime = 2.74 s  ClockTime = 2 s

Time = 61

smoothSolver:  Solving for Ux, Initial residual = 0.00122161, Final residual = 0.000108672, No Iterations 4
smoothSolver:  Solving for Uy, Initial residual = 0.00145057, Final residual = 0.000118576, No Iterations 6
GAMG:  Solving for p, Initial residual = 0.0104116, Final residual = 0.000625916, No Iterations 2
time step continuity errors : sum local = 0.0231051, global = -0.00104449, cumulative = -0.463768
smoothSolver:  Solving for omega, Initial residual = 9.72531e-06, Final residual = 5.5883e-07, No Iterations 3
smoothSolver:  Solving for k, Initial residual = 0.0130324, Final residual = 0.00119286, No Iterations 3
ExecutionTime = 2.78 s  ClockTime = 2 s

Time = 62

smoothSolver:  Solving for Ux, Initial residual = 0.00120209, Final residual = 0.000105838, No Iterations 4
smoothSolver:  Solving for Uy, Initial residual = 0.00140857, Final residual = 0.000115182, No Iterations 6
GAMG:  Solving for p, Initial residual = 0.0102104, Final residual = 0.000611946, No Iterations 2
time step continuity errors : sum local = 0.0224871, global = -0.000942144, cumulative = -0.46471
smoothSolver:  Solving for omega, Initial residual = 9.69577e-06, Final residual = 5.55883e-07, No Iterations 3
smoothSolver:  Solving for k, Initial residual = 0.0129489, Final residual = 0.00118805, No Iterations 3
ExecutionTime = 2.82 s  ClockTime = 2 s

Time = 63

smoothSolver:  Solving for Ux, Initial residual = 0.00118344, Final residual = 0.00010315, No Iterations 4
smoothSolver:  Solving for Uy, Initial residual = 0.00136797, Final residual = 0.000111909, No Iterations 6
GAMG:  Solving for p, Initial residual = 0.0100249, Final residual = 0.000596263, No Iterations 2
time step continuity errors : sum local = 0.0218174, global = -0.000857154, cumulative = -0.465567
smoothSolver:  Solving for omega, Initial residual = 9.73063e-06, Final residual = 5.55272e-07, No Iterations 3
smoothSolver:  Solving for k, Initial residual = 0.0128467, Final residual = 0.00118276, No Iterations 3
ExecutionTime = 2.85 s  ClockTime = 3 s

Time = 64

smoothSolver:  Solving for Ux, Initial residual = 0.00116499, Final residual = 0.000100541, No Iterations 4
smoothSolver:  Solving for Uy, Initial residual = 0.00132886, Final residual = 0.000108736, No Iterations 6
GAMG:  Solving for p, Initial residual = 0.00983319, Final residual = 0.00057567, No Iterations 2
time step continuity errors : sum local = 0.0209844, global = -0.000776775, cumulative = -0.466344
smoothSolver:  Solving for omega, Initial residual = 9.74521e-06, Final residual = 5.4923e-07, No Iterations 3
smoothSolver:  Solving for k, Initial residual = 0.0127323, Final residual = 0.00117531, No Iterations 3
ExecutionTime = 2.89 s  ClockTime = 3 s

Time = 65

smoothSolver:  Solving for Ux, Initial residual = 0.00114829, Final residual = 9.81568e-05, No Iterations 4
smoothSolver:  Solving for Uy, Initial residual = 0.00129212, Final residual = 0.000105757, No Iterations 6
GAMG:  Solving for p, Initial residual = 0.00969118, Final residual = 0.000553462, No Iterations 2
time step continuity errors : sum local = 0.0201051, global = -0.000692219, cumulative = -0.467036
smoothSolver:  Solving for omega, Initial residual = 9.87756e-06, Final residual = 5.46866e-07, No Iterations 3
smoothSolver:  Solving for k, Initial residual = 0.0126117, Final residual = 0.001168, No Iterations 3
ExecutionTime = 2.93 s  ClockTime = 3 s

Time = 66

smoothSolver:  Solving for Ux, Initial residual = 0.00113164, Final residual = 9.58337e-05, No Iterations 4
smoothSolver:  Solving for Uy, Initial residual = 0.00125696, Final residual = 0.000102885, No Iterations 6
GAMG:  Solving for p, Initial residual = 0.00963229, Final residual = 0.000531221, No Iterations 2
time step continuity errors : sum local = 0.0192386, global = -0.00060723, cumulative = -0.467643
smoothSolver:  Solving for omega, Initial residual = 9.89401e-06, Final residual = 5.39171e-07, No Iterations 3
smoothSolver:  Solving for k, Initial residual = 0.0124599, Final residual = 0.00115735, No Iterations 3
ExecutionTime = 2.97 s  ClockTime = 3 s

Time = 67

smoothSolver:  Solving for Ux, Initial residual = 0.00111601, Final residual = 9.36536e-05, No Iterations 4
smoothSolver:  Solving for Uy, Initial residual = 0.00122317, Final residual = 0.000100142, No Iterations 6
GAMG:  Solving for p, Initial residual = 0.00938695, Final residual = 0.000511184, No Iterations 2
time step continuity errors : sum local = 0.0184552, global = -0.00052847, cumulative = -0.468172
smoothSolver:  Solving for omega, Initial residual = 9.92896e-06, Final residual = 5.32085e-07, No Iterations 3
smoothSolver:  Solving for k, Initial residual = 0.0122901, Final residual = 0.00114522, No Iterations 3
ExecutionTime = 3.01 s  ClockTime = 3 s

Time = 68

smoothSolver:  Solving for Ux, Initial residual = 0.00110063, Final residual = 9.15479e-05, No Iterations 4
smoothSolver:  Solving for Uy, Initial residual = 0.00118992, Final residual = 9.74717e-05, No Iterations 6
GAMG:  Solving for p, Initial residual = 0.00923759, Final residual = 0.000488457, No Iterations 2
time step continuity errors : sum local = 0.0175889, global = -0.000551425, cumulative = -0.468723
smoothSolver:  Solving for omega, Initial residual = 9.89456e-06, Final residual = 5.21162e-07, No Iterations 3
smoothSolver:  Solving for k, Initial residual = 0.0121133, Final residual = 0.00113231, No Iterations 3
ExecutionTime = 3.06 s  ClockTime = 3 s

Time = 69

smoothSolver:  Solving for Ux, Initial residual = 0.00108675, Final residual = 8.96184e-05, No Iterations 4
smoothSolver:  Solving for Uy, Initial residual = 0.00115899, Final residual = 9.49668e-05, No Iterations 6
GAMG:  Solving for p, Initial residual = 0.00908249, Final residual = 0.000446862, No Iterations 2
time step continuity errors : sum local = 0.0160526, global = -0.000495189, cumulative = -0.469218
smoothSolver:  Solving for omega, Initial residual = 9.93388e-06, Final residual = 5.1422e-07, No Iterations 3
smoothSolver:  Solving for k, Initial residual = 0.0119106, Final residual = 0.00111718, No Iterations 3
ExecutionTime = 3.09 s  ClockTime = 3 s

Time = 70

smoothSolver:  Solving for Ux, Initial residual = 0.0010716, Final residual = 8.76151e-05, No Iterations 4
smoothSolver:  Solving for Uy, Initial residual = 0.00112816, Final residual = 9.2462e-05, No Iterations 6
GAMG:  Solving for p, Initial residual = 0.00897065, Final residual = 0.000423477, No Iterations 2
time step continuity errors : sum local = 0.0151836, global = -0.000409096, cumulative = -0.469627
smoothSolver:  Solving for omega, Initial residual = 9.7068e-06, Final residual = 4.94645e-07, No Iterations 3
smoothSolver:  Solving for k, Initial residual = 0.011707, Final residual = 0.0011013, No Iterations 3
ExecutionTime = 3.13 s  ClockTime = 3 s

Time = 71

smoothSolver:  Solving for Ux, Initial residual = 0.00105908, Final residual = 8.58839e-05, No Iterations 4
smoothSolver:  Solving for Uy, Initial residual = 0.00110438, Final residual = 9.01921e-05, No Iterations 6
GAMG:  Solving for p, Initial residual = 0.00953342, Final residual = 0.000410753, No Iterations 2
time step continuity errors : sum local = 0.0147016, global = -0.000339626, cumulative = -0.469967
smoothSolver:  Solving for omega, Initial residual = 9.72162e-06, Final residual = 4.86426e-07, No Iterations 3
smoothSolver:  Solving for k, Initial residual = 0.0114987, Final residual = 0.00108509, No Iterations 3
ExecutionTime = 3.16 s  ClockTime = 3 s

Time = 72

smoothSolver:  Solving for Ux, Initial residual = 0.00104534, Final residual = 8.40853e-05, No Iterations 4
smoothSolver:  Solving for Uy, Initial residual = 0.00117296, Final residual = 8.84098e-05, No Iterations 6
GAMG:  Solving for p, Initial residual = 0.00888782, Final residual = 0.000401205, No Iterations 2
time step continuity errors : sum local = 0.0143192, global = -0.000299398, cumulative = -0.470267
smoothSolver:  Solving for omega, Initial residual = 9.46728e-06, Final residual = 4.66992e-07, No Iterations 3
smoothSolver:  Solving for k, Initial residual = 0.0113023, Final residual = 0.00106775, No Iterations 3
ExecutionTime = 3.2 s  ClockTime = 3 s

Time = 73

smoothSolver:  Solving for Ux, Initial residual = 0.00103309, Final residual = 8.24538e-05, No Iterations 4
smoothSolver:  Solving for Uy, Initial residual = 0.00104798, Final residual = 8.59109e-05, No Iterations 6
GAMG:  Solving for p, Initial residual = 0.00882324, Final residual = 0.000385269, No Iterations 2
time step continuity errors : sum local = 0.0137397, global = -0.00026939, cumulative = -0.470536
smoothSolver:  Solving for omega, Initial residual = 9.33694e-06, Final residual = 4.54891e-07, No Iterations 3
smoothSolver:  Solving for k, Initial residual = 0.011049, Final residual = 0.00104909, No Iterations 3
ExecutionTime = 3.23 s  ClockTime = 3 s

Time = 74

smoothSolver:  Solving for Ux, Initial residual = 0.00102039, Final residual = 8.08124e-05, No Iterations 4
smoothSolver:  Solving for Uy, Initial residual = 0.00101989, Final residual = 8.37854e-05, No Iterations 6
GAMG:  Solving for p, Initial residual = 0.00855109, Final residual = 0.000367406, No Iterations 2
time step continuity errors : sum local = 0.0130893, global = -0.000239348, cumulative = -0.470775
smoothSolver:  Solving for omega, Initial residual = 9.03212e-06, Final residual = 4.36582e-07, No Iterations 3
smoothSolver:  Solving for k, Initial residual = 0.0107893, Final residual = 0.0010276, No Iterations 3
ExecutionTime = 3.27 s  ClockTime = 3 s

Time = 75

smoothSolver:  Solving for Ux, Initial residual = 0.00100881, Final residual = 7.92978e-05, No Iterations 4
smoothSolver:  Solving for Uy, Initial residual = 0.000995557, Final residual = 8.18123e-05, No Iterations 6
GAMG:  Solving for p, Initial residual = 0.00838672, Final residual = 0.000349926, No Iterations 2
time step continuity errors : sum local = 0.0124533, global = -0.000204676, cumulative = -0.47098
smoothSolver:  Solving for omega, Initial residual = 8.82301e-06, Final residual = 4.22496e-07, No Iterations 3
smoothSolver:  Solving for k, Initial residual = 0.0105087, Final residual = 0.00100387, No Iterations 3
ExecutionTime = 3.3 s  ClockTime = 3 s

Time = 76

smoothSolver:  Solving for Ux, Initial residual = 0.000997008, Final residual = 7.77935e-05, No Iterations 4
smoothSolver:  Solving for Uy, Initial residual = 0.000971834, Final residual = 7.99263e-05, No Iterations 6
GAMG:  Solving for p, Initial residual = 0.00821494, Final residual = 0.000335085, No Iterations 2
time step continuity errors : sum local = 0.0119176, global = -0.000173435, cumulative = -0.471153
smoothSolver:  Solving for omega, Initial residual = 8.5186e-06, Final residual = 4.05556e-07, No Iterations 3
smoothSolver:  Solving for k, Initial residual = 0.0102261, Final residual = 0.000979458, No Iterations 3
ExecutionTime = 3.34 s  ClockTime = 3 s

Time = 77

smoothSolver:  Solving for Ux, Initial residual = 0.000986426, Final residual = 7.6422e-05, No Iterations 4
smoothSolver:  Solving for Uy, Initial residual = 0.000950015, Final residual = 7.81902e-05, No Iterations 6
GAMG:  Solving for p, Initial residual = 0.00812594, Final residual = 0.000320202, No Iterations 2
time step continuity errors : sum local = 0.0113841, global = -0.000141922, cumulative = -0.471295
smoothSolver:  Solving for omega, Initial residual = 8.29376e-06, Final residual = 3.93724e-07, No Iterations 3
smoothSolver:  Solving for k, Initial residual = 0.00993429, Final residual = 0.000954101, No Iterations 3
ExecutionTime = 3.38 s  ClockTime = 3 s

Time = 78

smoothSolver:  Solving for Ux, Initial residual = 0.000975105, Final residual = 7.50166e-05, No Iterations 4
smoothSolver:  Solving for Uy, Initial residual = 0.000928506, Final residual = 7.64837e-05, No Iterations 6
GAMG:  Solving for p, Initial residual = 0.00799309, Final residual = 0.000306719, No Iterations 2
time step continuity errors : sum local = 0.0109038, global = -0.000110871, cumulative = -0.471406
smoothSolver:  Solving for omega, Initial residual = 7.93873e-06, Final residual = 3.76883e-07, No Iterations 3
smoothSolver:  Solving for k, Initial residual = 0.00965173, Final residual = 0.00092937, No Iterations 3
ExecutionTime = 3.41 s  ClockTime = 3 s

Time = 79

smoothSolver:  Solving for Ux, Initial residual = 0.00096515, Final residual = 7.37502e-05, No Iterations 4
smoothSolver:  Solving for Uy, Initial residual = 0.000908478, Final residual = 7.48862e-05, No Iterations 6
GAMG:  Solving for p, Initial residual = 0.007875, Final residual = 0.000294036, No Iterations 2
time step continuity errors : sum local = 0.0104527, global = -7.555e-05, cumulative = -0.471482
smoothSolver:  Solving for omega, Initial residual = 7.71463e-06, Final residual = 3.66555e-07, No Iterations 3
smoothSolver:  Solving for k, Initial residual = 0.00938654, Final residual = 0.000906174, No Iterations 3
ExecutionTime = 3.45 s  ClockTime = 3 s

Time = 80

smoothSolver:  Solving for Ux, Initial residual = 0.000954458, Final residual = 7.24455e-05, No Iterations 4
smoothSolver:  Solving for Uy, Initial residual = 0.000888741, Final residual = 7.33094e-05, No Iterations 6
GAMG:  Solving for p, Initial residual = 0.00775737, Final residual = 0.000283397, No Iterations 2
time step continuity errors : sum local = 0.0100752, global = -4.34534e-05, cumulative = -0.471525
smoothSolver:  Solving for omega, Initial residual = 7.36705e-06, Final residual = 3.51509e-07, No Iterations 3
smoothSolver:  Solving for k, Initial residual = 0.0091373, Final residual = 0.000884222, No Iterations 3
ExecutionTime = 3.49 s  ClockTime = 3 s

Time = 81

smoothSolver:  Solving for Ux, Initial residual = 0.000944911, Final residual = 7.12578e-05, No Iterations 4
smoothSolver:  Solving for Uy, Initial residual = 0.000870325, Final residual = 7.18321e-05, No Iterations 6
GAMG:  Solving for p, Initial residual = 0.00769135, Final residual = 0.000272953, No Iterations 2
time step continuity errors : sum local = 0.00970629, global = -1.2016e-05, cumulative = -0.471537
smoothSolver:  Solving for omega, Initial residual = 7.11781e-06, Final residual = 3.4003e-07, No Iterations 3
smoothSolver:  Solving for k, Initial residual = 0.00890286, Final residual = 0.000863468, No Iterations 3
ExecutionTime = 3.52 s  ClockTime = 3 s

Time = 82

smoothSolver:  Solving for Ux, Initial residual = 0.000935373, Final residual = 7.00923e-05, No Iterations 4
smoothSolver:  Solving for Uy, Initial residual = 0.000852569, Final residual = 7.04078e-05, No Iterations 6
GAMG:  Solving for p, Initial residual = 0.00761857, Final residual = 0.000263344, No Iterations 2
time step continuity errors : sum local = 0.00936573, global = 1.83785e-05, cumulative = -0.471519
smoothSolver:  Solving for omega, Initial residual = 6.83582e-06, Final residual = 3.29496e-07, No Iterations 3
smoothSolver:  Solving for k, Initial residual = 0.00868205, Final residual = 0.000843936, No Iterations 3
ExecutionTime = 3.55 s  ClockTime = 3 s

Time = 83

smoothSolver:  Solving for Ux, Initial residual = 0.000925804, Final residual = 6.89441e-05, No Iterations 4
smoothSolver:  Solving for Uy, Initial residual = 0.000835582, Final residual = 6.90436e-05, No Iterations 6
GAMG:  Solving for p, Initial residual = 0.00754311, Final residual = 0.000254155, No Iterations 2
time step continuity errors : sum local = 0.00904042, global = 4.97889e-05, cumulative = -0.471469
smoothSolver:  Solving for omega, Initial residual = 6.54181e-06, Final residual = 3.17468e-07, No Iterations 3
smoothSolver:  Solving for k, Initial residual = 0.00847366, Final residual = 0.000825474, No Iterations 3
ExecutionTime = 3.59 s  ClockTime = 3 s

Time = 84

smoothSolver:  Solving for Ux, Initial residual = 0.000917144, Final residual = 6.78863e-05, No Iterations 4
smoothSolver:  Solving for Uy, Initial residual = 0.000819478, Final residual = 6.77492e-05, No Iterations 6
GAMG:  Solving for p, Initial residual = 0.0074497, Final residual = 0.000245771, No Iterations 2
time step continuity errors : sum local = 0.00873934, global = 8.09348e-05, cumulative = -0.471388
smoothSolver:  Solving for omega, Initial residual = 6.33274e-06, Final residual = 3.08352e-07, No Iterations 3
smoothSolver:  Solving for k, Initial residual = 0.00827601, Final residual = 0.000807812, No Iterations 3
ExecutionTime = 3.62 s  ClockTime = 3 s

Time = 85

smoothSolver:  Solving for Ux, Initial residual = 0.00090766, Final residual = 6.67828e-05, No Iterations 4
smoothSolver:  Solving for Uy, Initial residual = 0.000803498, Final residual = 6.64613e-05, No Iterations 6
GAMG:  Solving for p, Initial residual = 0.00741058, Final residual = 0.000238531, No Iterations 2
time step continuity errors : sum local = 0.00847937, global = 0.000109424, cumulative = -0.471279
smoothSolver:  Solving for omega, Initial residual = 6.02699e-06, Final residual = 2.95756e-07, No Iterations 3
smoothSolver:  Solving for k, Initial residual = 0.00808869, Final residual = 0.000791051, No Iterations 3
ExecutionTime = 3.66 s  ClockTime = 3 s

Time = 86

smoothSolver:  Solving for Ux, Initial residual = 0.00089971, Final residual = 6.5819e-05, No Iterations 4
smoothSolver:  Solving for Uy, Initial residual = 0.000795232, Final residual = 6.52833e-05, No Iterations 6
GAMG:  Solving for p, Initial residual = 0.00830721, Final residual = 0.000807651, No Iterations 1
time step continuity errors : sum local = 0.0287407, global = 0.00128402, cumulative = -0.469995
smoothSolver:  Solving for omega, Initial residual = 5.85665e-06, Final residual = 2.89504e-07, No Iterations 3
smoothSolver:  Solving for k, Initial residual = 0.0079211, Final residual = 0.000775122, No Iterations 3
ExecutionTime = 3.69 s  ClockTime = 3 s

Time = 87

smoothSolver:  Solving for Ux, Initial residual = 0.000891121, Final residual = 6.48082e-05, No Iterations 4
smoothSolver:  Solving for Uy, Initial residual = 0.000969204, Final residual = 6.50223e-05, No Iterations 6
GAMG:  Solving for p, Initial residual = 0.00816373, Final residual = 0.000377013, No Iterations 2
time step continuity errors : sum local = 0.0134176, global = 0.000354649, cumulative = -0.46964
smoothSolver:  Solving for omega, Initial residual = 5.61499e-06, Final residual = 2.77928e-07, No Iterations 3
smoothSolver:  Solving for k, Initial residual = 0.00786607, Final residual = 0.00076162, No Iterations 3
ExecutionTime = 3.72 s  ClockTime = 3 s

Time = 88

smoothSolver:  Solving for Ux, Initial residual = 0.000882916, Final residual = 6.38682e-05, No Iterations 4
smoothSolver:  Solving for Uy, Initial residual = 0.000765404, Final residual = 6.31269e-05, No Iterations 6
GAMG:  Solving for p, Initial residual = 0.0075687, Final residual = 0.000262856, No Iterations 2
time step continuity errors : sum local = 0.00936771, global = -2.30992e-05, cumulative = -0.469663
smoothSolver:  Solving for omega, Initial residual = 5.42458e-06, Final residual = 2.71493e-07, No Iterations 3
smoothSolver:  Solving for k, Initial residual = 0.00759553, Final residual = 0.000746216, No Iterations 3
ExecutionTime = 3.76 s  ClockTime = 3 s

Time = 89

smoothSolver:  Solving for Ux, Initial residual = 0.000875419, Final residual = 6.29956e-05, No Iterations 4
smoothSolver:  Solving for Uy, Initial residual = 0.000747608, Final residual = 6.19235e-05, No Iterations 6
GAMG:  Solving for p, Initial residual = 0.00746313, Final residual = 0.000193038, No Iterations 2
time step continuity errors : sum local = 0.00688197, global = 9.65565e-05, cumulative = -0.469567
smoothSolver:  Solving for omega, Initial residual = 5.23522e-06, Final residual = 2.66216e-07, No Iterations 3
smoothSolver:  Solving for k, Initial residual = 0.00743515, Final residual = 0.000732077, No Iterations 3
ExecutionTime = 3.8 s  ClockTime = 3 s

Time = 90

smoothSolver:  Solving for Ux, Initial residual = 0.000866874, Final residual = 6.20502e-05, No Iterations 4
smoothSolver:  Solving for Uy, Initial residual = 0.000733877, Final residual = 6.07903e-05, No Iterations 6
GAMG:  Solving for p, Initial residual = 0.00728332, Final residual = 0.000202619, No Iterations 2
time step continuity errors : sum local = 0.00722767, global = 0.00019339, cumulative = -0.469373
smoothSolver:  Solving for omega, Initial residual = 4.94911e-06, Final residual = 2.56146e-07, No Iterations 3
smoothSolver:  Solving for k, Initial residual = 0.00728489, Final residual = 0.000718509, No Iterations 3
ExecutionTime = 3.83 s  ClockTime = 3 s

Time = 91

smoothSolver:  Solving for Ux, Initial residual = 0.000860124, Final residual = 6.12582e-05, No Iterations 4
smoothSolver:  Solving for Uy, Initial residual = 0.000721361, Final residual = 5.97953e-05, No Iterations 6
GAMG:  Solving for p, Initial residual = 0.007185, Final residual = 0.000203999, No Iterations 2
time step continuity errors : sum local = 0.00728398, global = 0.000259436, cumulative = -0.469114
smoothSolver:  Solving for omega, Initial residual = 4.84126e-06, Final residual = 2.54004e-07, No Iterations 3
smoothSolver:  Solving for k, Initial residual = 0.00714196, Final residual = 0.000705499, No Iterations 3
ExecutionTime = 3.86 s  ClockTime = 4 s

Time = 92

smoothSolver:  Solving for Ux, Initial residual = 0.000852762, Final residual = 6.04308e-05, No Iterations 4
smoothSolver:  Solving for Uy, Initial residual = 0.000709195, Final residual = 5.88126e-05, No Iterations 6
GAMG:  Solving for p, Initial residual = 0.0071225, Final residual = 0.000201176, No Iterations 2
time step continuity errors : sum local = 0.00719017, global = 0.000285731, cumulative = -0.468828
smoothSolver:  Solving for omega, Initial residual = 4.66786e-06, Final residual = 2.48657e-07, No Iterations 3
smoothSolver:  Solving for k, Initial residual = 0.0070048, Final residual = 0.000692995, No Iterations 3
ExecutionTime = 3.9 s  ClockTime = 4 s

Time = 93

smoothSolver:  Solving for Ux, Initial residual = 0.000845154, Final residual = 5.95979e-05, No Iterations 4
smoothSolver:  Solving for Uy, Initial residual = 0.000697165, Final residual = 5.78351e-05, No Iterations 6
GAMG:  Solving for p, Initial residual = 0.00703716, Final residual = 0.000199489, No Iterations 2
time step continuity errors : sum local = 0.00713398, global = 0.000292769, cumulative = -0.468535
smoothSolver:  Solving for omega, Initial residual = 4.46597e-06, Final residual = 2.40914e-07, No Iterations 3
smoothSolver:  Solving for k, Initial residual = 0.00687329, Final residual = 0.000680949, No Iterations 3
ExecutionTime = 3.93 s  ClockTime = 4 s

Time = 94

smoothSolver:  Solving for Ux, Initial residual = 0.000838771, Final residual = 5.88731e-05, No Iterations 4
smoothSolver:  Solving for Uy, Initial residual = 0.000685776, Final residual = 5.69115e-05, No Iterations 6
GAMG:  Solving for p, Initial residual = 0.00697677, Final residual = 0.00019876, No Iterations 2
time step continuity errors : sum local = 0.00711164, global = 0.000294851, cumulative = -0.46824
smoothSolver:  Solving for omega, Initial residual = 4.36588e-06, Final residual = 2.38802e-07, No Iterations 3
smoothSolver:  Solving for k, Initial residual = 0.00674658, Final residual = 0.00066931, No Iterations 3
ExecutionTime = 3.97 s  ClockTime = 4 s

Time = 95

smoothSolver:  Solving for Ux, Initial residual = 0.000831536, Final residual = 5.80942e-05, No Iterations 4
smoothSolver:  Solving for Uy, Initial residual = 0.000674251, Final residual = 5.59701e-05, No Iterations 6
GAMG:  Solving for p, Initial residual = 0.00692281, Final residual = 0.000197594, No Iterations 2
time step continuity errors : sum local = 0.00707682, global = 0.000298151, cumulative = -0.467942
smoothSolver:  Solving for omega, Initial residual = 4.18396e-06, Final residual = 2.31841e-07, No Iterations 3
smoothSolver:  Solving for k, Initial residual = 0.00662459, Final residual = 0.000658064, No Iterations 3
ExecutionTime = 4 s  ClockTime = 4 s

Time = 96

smoothSolver:  Solving for Ux, Initial residual = 0.000825379, Final residual = 5.74089e-05, No Iterations 4
smoothSolver:  Solving for Uy, Initial residual = 0.000663548, Final residual = 5.51039e-05, No Iterations 6
GAMG:  Solving for p, Initial residual = 0.0068694, Final residual = 0.000196819, No Iterations 2
time step continuity errors : sum local = 0.00705752, global = 0.000302369, cumulative = -0.46764
smoothSolver:  Solving for omega, Initial residual = 4.08655e-06, Final residual = 2.29532e-07, No Iterations 3
smoothSolver:  Solving for k, Initial residual = 0.00650706, Final residual = 0.000647202, No Iterations 3
ExecutionTime = 4.03 s  ClockTime = 4 s

Time = 97

smoothSolver:  Solving for Ux, Initial residual = 0.000818966, Final residual = 5.67145e-05, No Iterations 4
smoothSolver:  Solving for Uy, Initial residual = 0.000652967, Final residual = 5.42382e-05, No Iterations 6
GAMG:  Solving for p, Initial residual = 0.00684987, Final residual = 0.000195747, No Iterations 2
time step continuity errors : sum local = 0.00702909, global = 0.00030505, cumulative = -0.467335
smoothSolver:  Solving for omega, Initial residual = 3.96196e-06, Final residual = 2.25137e-07, No Iterations 3
smoothSolver:  Solving for k, Initial residual = 0.0063934, Final residual = 0.000636679, No Iterations 3
ExecutionTime = 4.07 s  ClockTime = 4 s

Time = 98

smoothSolver:  Solving for Ux, Initial residual = 0.000812629, Final residual = 5.6036e-05, No Iterations 4
smoothSolver:  Solving for Uy, Initial residual = 0.000642592, Final residual = 5.33926e-05, No Iterations 6
GAMG:  Solving for p, Initial residual = 0.0068458, Final residual = 0.000194324, No Iterations 2
time step continuity errors : sum local = 0.00698757, global = 0.000306402, cumulative = -0.467028
smoothSolver:  Solving for omega, Initial residual = 3.83813e-06, Final residual = 2.20763e-07, No Iterations 3
smoothSolver:  Solving for k, Initial residual = 0.00628353, Final residual = 0.000626473, No Iterations 3
ExecutionTime = 4.1 s  ClockTime = 4 s

Time = 99

smoothSolver:  Solving for Ux, Initial residual = 0.000806547, Final residual = 5.53861e-05, No Iterations 4
smoothSolver:  Solving for Uy, Initial residual = 0.00063259, Final residual = 5.25731e-05, No Iterations 6
GAMG:  Solving for p, Initial residual = 0.00685688, Final residual = 0.000192512, No Iterations 2
time step continuity errors : sum local = 0.00693211, global = 0.000305881, cumulative = -0.466723
smoothSolver:  Solving for omega, Initial residual = 3.7266e-06, Final residual = 2.16873e-07, No Iterations 3
smoothSolver:  Solving for k, Initial residual = 0.0061771, Final residual = 0.000616573, No Iterations 3
ExecutionTime = 4.13 s  ClockTime = 4 s

Time = 100

smoothSolver:  Solving for Ux, Initial residual = 0.000800558, Final residual = 5.47537e-05, No Iterations 4
smoothSolver:  Solving for Uy, Initial residual = 0.000622975, Final residual = 5.17773e-05, No Iterations 6
GAMG:  Solving for p, Initial residual = 0.00687067, Final residual = 0.000190651, No Iterations 2
time step continuity errors : sum local = 0.00687425, global = 0.000304991, cumulative = -0.466418
smoothSolver:  Solving for omega, Initial residual = 3.61645e-06, Final residual = 2.12762e-07, No Iterations 3
smoothSolver:  Solving for k, Initial residual = 0.00607409, Final residual = 0.000606969, No Iterations 3
ExecutionTime = 4.25 s  ClockTime = 4 s

    functionObjects::turbulenceFields stressComponents writing field: turbulenceProperties:devReff

    functionObjects::pressure pressureCoefficient writing field: cp
writeCellCentres writeCellCentres write:
    writing cell-centres field C to 100
    Writing the x component field of the cell-centres Cx to 100
    Writing the y component field of the cell-centres Cy to 100
    Writing the z component field of the cell-centres Cz to 100
wallShearStress wallShearStress write:
    writing field wallShearStress
    min/max(upperWall) = (-13.2339 -0.117081 -5.98492e-19), (-4.523 0.00102779 6.05916e-19)
    min/max(lowerWall) = (-13.5394 -1.7912 -2.32014e-18), (1.79894 8.24525 3.97715e-18)
Time = 101

smoothSolver:  Solving for Ux, Initial residual = 0.00079471, Final residual = 5.41408e-05, No Iterations 4
smoothSolver:  Solving for Uy, Initial residual = 0.00061352, Final residual = 5.09921e-05, No Iterations 6
GAMG:  Solving for p, Initial residual = 0.00689911, Final residual = 0.000188743, No Iterations 2
time step continuity errors : sum local = 0.0068117, global = 0.000304862, cumulative = -0.466113
smoothSolver:  Solving for omega, Initial residual = 3.51237e-06, Final residual = 2.08918e-07, No Iterations 3
smoothSolver:  Solving for k, Initial residual = 0.00597414, Final residual = 0.000281872, No Iterations 4
ExecutionTime = 4.43 s  ClockTime = 4 s

Time = 102

smoothSolver:  Solving for Ux, Initial residual = 0.000788523, Final residual = 5.34545e-05, No Iterations 4
smoothSolver:  Solving for Uy, Initial residual = 0.000605656, Final residual = 5.0308e-05, No Iterations 6
GAMG:  Solving for p, Initial residual = 0.00699415, Final residual = 0.00018755, No Iterations 2
time step continuity errors : sum local = 0.00677636, global = 0.00031099, cumulative = -0.465802
smoothSolver:  Solving for omega, Initial residual = 3.4122e-06, Final residual = 2.04987e-07, No Iterations 3
smoothSolver:  Solving for k, Initial residual = 0.00587283, Final residual = 0.00027704, No Iterations 4
ExecutionTime = 4.47 s  ClockTime = 4 s

Time = 103

smoothSolver:  Solving for Ux, Initial residual = 0.000782487, Final residual = 5.27953e-05, No Iterations 4
smoothSolver:  Solving for Uy, Initial residual = 0.000596629, Final residual = 4.95427e-05, No Iterations 6
GAMG:  Solving for p, Initial residual = 0.00706, Final residual = 0.000186755, No Iterations 2
time step continuity errors : sum local = 0.00675678, global = 0.000316097, cumulative = -0.465486
smoothSolver:  Solving for omega, Initial residual = 3.32063e-06, Final residual = 2.01249e-07, No Iterations 3
smoothSolver:  Solving for k, Initial residual = 0.00577434, Final residual = 0.000272659, No Iterations 4
ExecutionTime = 4.5 s  ClockTime = 4 s

Time = 104

smoothSolver:  Solving for Ux, Initial residual = 0.000776597, Final residual = 5.2162e-05, No Iterations 4
smoothSolver:  Solving for Uy, Initial residual = 0.000587539, Final residual = 4.87735e-05, No Iterations 6
GAMG:  Solving for p, Initial residual = 0.00711514, Final residual = 0.000704657, No Iterations 1
time step continuity errors : sum local = 0.0255292, global = 0.000816952, cumulative = -0.464669
smoothSolver:  Solving for omega, Initial residual = 3.2304e-06, Final residual = 1.97511e-07, No Iterations 3
smoothSolver:  Solving for k, Initial residual = 0.00567891, Final residual = 0.000268467, No Iterations 4
ExecutionTime = 4.54 s  ClockTime = 4 s

Time = 105

smoothSolver:  Solving for Ux, Initial residual = 0.000770826, Final residual = 5.15493e-05, No Iterations 4
smoothSolver:  Solving for Uy, Initial residual = 0.000579533, Final residual = 4.80691e-05, No Iterations 6
GAMG:  Solving for p, Initial residual = 0.00814931, Final residual = 0.000293383, No Iterations 2
time step continuity errors : sum local = 0.0106488, global = 0.000531625, cumulative = -0.464137
smoothSolver:  Solving for omega, Initial residual = 3.1496e-06, Final residual = 1.93827e-07, No Iterations 3
smoothSolver:  Solving for k, Initial residual = 0.00558716, Final residual = 0.000264411, No Iterations 4
ExecutionTime = 4.57 s  ClockTime = 4 s

Time = 106

smoothSolver:  Solving for Ux, Initial residual = 0.000765242, Final residual = 5.09599e-05, No Iterations 4
smoothSolver:  Solving for Uy, Initial residual = 0.000574393, Final residual = 4.72706e-05, No Iterations 6
GAMG:  Solving for p, Initial residual = 0.00729939, Final residual = 0.000667213, No Iterations 1
time step continuity errors : sum local = 0.0242525, global = 0.000999869, cumulative = -0.463137
smoothSolver:  Solving for omega, Initial residual = 3.06768e-06, Final residual = 1.90121e-07, No Iterations 3
smoothSolver:  Solving for k, Initial residual = 0.00549783, Final residual = 0.000260487, No Iterations 4
ExecutionTime = 4.61 s  ClockTime = 4 s

Time = 107

smoothSolver:  Solving for Ux, Initial residual = 0.000759742, Final residual = 5.03914e-05, No Iterations 4
smoothSolver:  Solving for Uy, Initial residual = 0.000561241, Final residual = 4.65546e-05, No Iterations 6
GAMG:  Solving for p, Initial residual = 0.00767896, Final residual = 0.000341382, No Iterations 2
time step continuity errors : sum local = 0.0124355, global = 0.000349919, cumulative = -0.462787
smoothSolver:  Solving for omega, Initial residual = 2.99925e-06, Final residual = 1.8657e-07, No Iterations 3
smoothSolver:  Solving for k, Initial residual = 0.0054092, Final residual = 0.000256637, No Iterations 4
ExecutionTime = 4.65 s  ClockTime = 4 s

Time = 108

smoothSolver:  Solving for Ux, Initial residual = 0.000754459, Final residual = 4.985e-05, No Iterations 4
smoothSolver:  Solving for Uy, Initial residual = 0.000552267, Final residual = 4.57991e-05, No Iterations 6
GAMG:  Solving for p, Initial residual = 0.00711101, Final residual = 0.000628758, No Iterations 1
time step continuity errors : sum local = 0.0229319, global = 0.000705168, cumulative = -0.462082
smoothSolver:  Solving for omega, Initial residual = 2.91978e-06, Final residual = 1.83176e-07, No Iterations 3
smoothSolver:  Solving for k, Initial residual = 0.00532383, Final residual = 0.000252893, No Iterations 4
ExecutionTime = 4.68 s  ClockTime = 4 s

Time = 109

smoothSolver:  Solving for Ux, Initial residual = 0.000749214, Final residual = 4.93198e-05, No Iterations 4
smoothSolver:  Solving for Uy, Initial residual = 0.000543985, Final residual = 4.51156e-05, No Iterations 6
GAMG:  Solving for p, Initial residual = 0.00751718, Final residual = 0.00027739, No Iterations 2
time step continuity errors : sum local = 0.010139, global = 0.00035814, cumulative = -0.461724
smoothSolver:  Solving for omega, Initial residual = 2.86612e-06, Final residual = 1.80021e-07, No Iterations 3
smoothSolver:  Solving for k, Initial residual = 0.00524094, Final residual = 0.000249245, No Iterations 4
ExecutionTime = 4.71 s  ClockTime = 4 s

Time = 110

smoothSolver:  Solving for Ux, Initial residual = 0.000744151, Final residual = 4.88104e-05, No Iterations 4
smoothSolver:  Solving for Uy, Initial residual = 0.000535534, Final residual = 4.44177e-05, No Iterations 6
GAMG:  Solving for p, Initial residual = 0.00686674, Final residual = 0.000630511, No Iterations 1
time step continuity errors : sum local = 0.0230828, global = 0.000741955, cumulative = -0.460982
smoothSolver:  Solving for omega, Initial residual = 2.79759e-06, Final residual = 1.77185e-07, No Iterations 3
smoothSolver:  Solving for k, Initial residual = 0.00516027, Final residual = 0.000245687, No Iterations 4
ExecutionTime = 4.75 s  ClockTime = 4 s

Time = 111

smoothSolver:  Solving for Ux, Initial residual = 0.000739134, Final residual = 4.8315e-05, No Iterations 4
smoothSolver:  Solving for Uy, Initial residual = 0.000527713, Final residual = 4.37767e-05, No Iterations 6
GAMG:  Solving for p, Initial residual = 0.00723823, Final residual = 0.000277757, No Iterations 2
time step continuity errors : sum local = 0.0101943, global = 0.000376098, cumulative = -0.460606
smoothSolver:  Solving for omega, Initial residual = 2.75123e-06, Final residual = 1.74524e-07, No Iterations 3
smoothSolver:  Solving for k, Initial residual = 0.00508173, Final residual = 0.000242218, No Iterations 4
ExecutionTime = 4.79 s  ClockTime = 4 s

Time = 112

smoothSolver:  Solving for Ux, Initial residual = 0.000734293, Final residual = 4.78385e-05, No Iterations 4
smoothSolver:  Solving for Uy, Initial residual = 0.000519233, Final residual = 4.30706e-05, No Iterations 6
GAMG:  Solving for p, Initial residual = 0.00661565, Final residual = 0.000630739, No Iterations 1
time step continuity errors : sum local = 0.0231968, global = 0.000800679, cumulative = -0.459805
smoothSolver:  Solving for omega, Initial residual = 2.68813e-06, Final residual = 1.72147e-07, No Iterations 3
smoothSolver:  Solving for k, Initial residual = 0.00500522, Final residual = 0.000238829, No Iterations 4
ExecutionTime = 4.82 s  ClockTime = 4 s

Time = 113

smoothSolver:  Solving for Ux, Initial residual = 0.0007295, Final residual = 4.73737e-05, No Iterations 4
smoothSolver:  Solving for Uy, Initial residual = 0.000514182, Final residual = 4.24698e-05, No Iterations 6
GAMG:  Solving for p, Initial residual = 0.00762908, Final residual = 0.000296066, No Iterations 2
time step continuity errors : sum local = 0.0109241, global = 0.000375421, cumulative = -0.45943
smoothSolver:  Solving for omega, Initial residual = 2.64915e-06, Final residual = 1.69978e-07, No Iterations 3
smoothSolver:  Solving for k, Initial residual = 0.00493471, Final residual = 0.00023553, No Iterations 4
ExecutionTime = 4.86 s  ClockTime = 5 s

Time = 114

smoothSolver:  Solving for Ux, Initial residual = 0.000724895, Final residual = 4.69289e-05, No Iterations 4
[...]

smoothSolver:  Solving for Ux, Initial residual = 0.000334067, Final residual = 3.28236e-05, No Iterations 3
smoothSolver:  Solving for Uy, Initial residual = 7.85647e-06, Final residual = 7.41319e-07, No Iterations 5
GAMG:  Solving for p, Initial residual = 0.00580792, Final residual = 0.000429192, No Iterations 1
time step continuity errors : sum local = 0.0152959, global = 0.000156967, cumulative = -0.202629
smoothSolver:  Solving for omega, Initial residual = 1.50891e-07, Final residual = 9.79557e-09, No Iterations 3
smoothSolver:  Solving for k, Initial residual = 0.00016072, Final residual = 7.94807e-06, No Iterations 4
ExecutionTime = 35.85 s  ClockTime = 36 s

Time = 974

smoothSolver:  Solving for Ux, Initial residual = 0.000334047, Final residual = 3.28229e-05, No Iterations 3
smoothSolver:  Solving for Uy, Initial residual = 7.84053e-06, Final residual = 7.38454e-07, No Iterations 5
GAMG:  Solving for p, Initial residual = 0.00575908, Final residual = 0.000432048, No Iterations 1
time step continuity errors : sum local = 0.0154053, global = 6.20236e-05, cumulative = -0.202567
smoothSolver:  Solving for omega, Initial residual = 1.46868e-07, Final residual = 9.74463e-09, No Iterations 3
smoothSolver:  Solving for k, Initial residual = 0.000160376, Final residual = 7.93165e-06, No Iterations 4
ExecutionTime = 35.88 s  ClockTime = 36 s

Time = 975

smoothSolver:  Solving for Ux, Initial residual = 0.000334023, Final residual = 3.28208e-05, No Iterations 3
smoothSolver:  Solving for Uy, Initial residual = 7.80797e-06, Final residual = 7.36547e-07, No Iterations 5
GAMG:  Solving for p, Initial residual = 0.00555646, Final residual = 0.000429028, No Iterations 1
time step continuity errors : sum local = 0.0152825, global = -3.84227e-05, cumulative = -0.202605
smoothSolver:  Solving for omega, Initial residual = 1.4743e-07, Final residual = 9.83263e-09, No Iterations 3
smoothSolver:  Solving for k, Initial residual = 0.000160042, Final residual = 7.91538e-06, No Iterations 4
ExecutionTime = 35.91 s  ClockTime = 36 s

Time = 976

smoothSolver:  Solving for Ux, Initial residual = 0.000333987, Final residual = 3.28174e-05, No Iterations 3
smoothSolver:  Solving for Uy, Initial residual = 7.75665e-06, Final residual = 7.33399e-07, No Iterations 5
GAMG:  Solving for p, Initial residual = 0.00547891, Final residual = 0.000421277, No Iterations 1
time step continuity errors : sum local = 0.014981, global = -0.000127303, cumulative = -0.202733
smoothSolver:  Solving for omega, Initial residual = 1.46817e-07, Final residual = 9.86124e-09, No Iterations 3
smoothSolver:  Solving for k, Initial residual = 0.000159713, Final residual = 7.89925e-06, No Iterations 4
ExecutionTime = 35.94 s  ClockTime = 36 s

Time = 977

smoothSolver:  Solving for Ux, Initial residual = 0.000333949, Final residual = 3.2814e-05, No Iterations 3
smoothSolver:  Solving for Uy, Initial residual = 7.84702e-06, Final residual = 7.43059e-07, No Iterations 5
GAMG:  Solving for p, Initial residual = 0.00565973, Final residual = 0.00042164, No Iterations 1
time step continuity errors : sum local = 0.0149783, global = -0.000190602, cumulative = -0.202923
smoothSolver:  Solving for omega, Initial residual = 1.44978e-07, Final residual = 9.85606e-09, No Iterations 3
smoothSolver:  Solving for k, Initial residual = 0.000159552, Final residual = 7.88212e-06, No Iterations 4
ExecutionTime = 35.97 s  ClockTime = 36 s

Time = 978

smoothSolver:  Solving for Ux, Initial residual = 0.000333885, Final residual = 3.28076e-05, No Iterations 3
smoothSolver:  Solving for Uy, Initial residual = 8.27611e-06, Final residual = 7.42051e-07, No Iterations 5
GAMG:  Solving for p, Initial residual = 0.00549632, Final residual = 0.000421935, No Iterations 1
time step continuity errors : sum local = 0.0149849, global = -0.000216419, cumulative = -0.20314
smoothSolver:  Solving for omega, Initial residual = 1.45929e-07, Final residual = 9.85394e-09, No Iterations 3
smoothSolver:  Solving for k, Initial residual = 0.000159216, Final residual = 7.86767e-06, No Iterations 4
ExecutionTime = 36 s  ClockTime = 36 s

Time = 979

smoothSolver:  Solving for Ux, Initial residual = 0.000333852, Final residual = 3.28058e-05, No Iterations 3
smoothSolver:  Solving for Uy, Initial residual = 7.74479e-06, Final residual = 7.37621e-07, No Iterations 5
GAMG:  Solving for p, Initial residual = 0.00531305, Final residual = 0.000421911, No Iterations 1
time step continuity errors : sum local = 0.0149751, global = -0.000197112, cumulative = -0.203337
smoothSolver:  Solving for omega, Initial residual = 1.46255e-07, Final residual = 9.87961e-09, No Iterations 3
smoothSolver:  Solving for k, Initial residual = 0.000158779, Final residual = 7.85191e-06, No Iterations 4
ExecutionTime = 36.03 s  ClockTime = 36 s

Time = 980

smoothSolver:  Solving for Ux, Initial residual = 0.000333799, Final residual = 3.2801e-05, No Iterations 3
smoothSolver:  Solving for Uy, Initial residual = 7.78427e-06, Final residual = 7.36217e-07, No Iterations 5
GAMG:  Solving for p, Initial residual = 0.00510836, Final residual = 0.000403489, No Iterations 1
time step continuity errors : sum local = 0.0143153, global = -0.000134673, cumulative = -0.203472
smoothSolver:  Solving for omega, Initial residual = 1.44464e-07, Final residual = 9.7764e-09, No Iterations 3
smoothSolver:  Solving for k, Initial residual = 0.00015844, Final residual = 7.83617e-06, No Iterations 4
ExecutionTime = 36.06 s  ClockTime = 36 s

Time = 981

smoothSolver:  Solving for Ux, Initial residual = 0.000333743, Final residual = 3.27964e-05, No Iterations 3
smoothSolver:  Solving for Uy, Initial residual = 7.77595e-06, Final residual = 7.36203e-07, No Iterations 5
GAMG:  Solving for p, Initial residual = 0.00499007, Final residual = 0.000400406, No Iterations 1
time step continuity errors : sum local = 0.0142028, global = -4.28371e-05, cumulative = -0.203514
smoothSolver:  Solving for omega, Initial residual = 1.44695e-07, Final residual = 9.75073e-09, No Iterations 3
smoothSolver:  Solving for k, Initial residual = 0.000158116, Final residual = 7.82051e-06, No Iterations 4
ExecutionTime = 36.1 s  ClockTime = 36 s

Time = 982

smoothSolver:  Solving for Ux, Initial residual = 0.000333687, Final residual = 3.2792e-05, No Iterations 3
smoothSolver:  Solving for Uy, Initial residual = 7.72501e-06, Final residual = 7.35331e-07, No Iterations 5
GAMG:  Solving for p, Initial residual = 0.00554543, Final residual = 0.000407434, No Iterations 1
time step continuity errors : sum local = 0.0144499, global = 6.26637e-05, cumulative = -0.203452
smoothSolver:  Solving for omega, Initial residual = 1.44969e-07, Final residual = 9.77475e-09, No Iterations 3
smoothSolver:  Solving for k, Initial residual = 0.000157797, Final residual = 7.80489e-06, No Iterations 4
ExecutionTime = 36.13 s  ClockTime = 36 s

Time = 983

smoothSolver:  Solving for Ux, Initial residual = 0.000333602, Final residual = 3.27795e-05, No Iterations 3
smoothSolver:  Solving for Uy, Initial residual = 7.72573e-06, Final residual = 7.32116e-07, No Iterations 5
GAMG:  Solving for p, Initial residual = 0.00541585, Final residual = 0.00039307, No Iterations 1
time step continuity errors : sum local = 0.0139575, global = 0.000164912, cumulative = -0.203287
smoothSolver:  Solving for omega, Initial residual = 1.44596e-07, Final residual = 9.68805e-09, No Iterations 3
smoothSolver:  Solving for k, Initial residual = 0.000157481, Final residual = 7.78936e-06, No Iterations 4
ExecutionTime = 36.16 s  ClockTime = 36 s

Time = 984

smoothSolver:  Solving for Ux, Initial residual = 0.000333557, Final residual = 3.27786e-05, No Iterations 3
smoothSolver:  Solving for Uy, Initial residual = 7.65331e-06, Final residual = 7.28428e-07, No Iterations 5
GAMG:  Solving for p, Initial residual = 0.00516544, Final residual = 0.00040057, No Iterations 1
time step continuity errors : sum local = 0.0142428, global = 0.00024837, cumulative = -0.203038
smoothSolver:  Solving for omega, Initial residual = 1.44552e-07, Final residual = 9.66891e-09, No Iterations 3
smoothSolver:  Solving for k, Initial residual = 0.000157167, Final residual = 7.7739e-06, No Iterations 4
ExecutionTime = 36.19 s  ClockTime = 36 s

Time = 985

smoothSolver:  Solving for Ux, Initial residual = 0.000333524, Final residual = 3.2776e-05, No Iterations 3
smoothSolver:  Solving for Uy, Initial residual = 7.65198e-06, Final residual = 7.25073e-07, No Iterations 5
GAMG:  Solving for p, Initial residual = 0.00564563, Final residual = 0.000434393, No Iterations 1
time step continuity errors : sum local = 0.0154555, global = 0.000299785, cumulative = -0.202739
smoothSolver:  Solving for omega, Initial residual = 1.42592e-07, Final residual = 9.67105e-09, No Iterations 3
smoothSolver:  Solving for k, Initial residual = 0.000156855, Final residual = 7.75851e-06, No Iterations 4
ExecutionTime = 36.22 s  ClockTime = 36 s

Time = 986

smoothSolver:  Solving for Ux, Initial residual = 0.000333468, Final residual = 3.27702e-05, No Iterations 3
smoothSolver:  Solving for Uy, Initial residual = 7.81645e-06, Final residual = 7.34295e-07, No Iterations 5
GAMG:  Solving for p, Initial residual = 0.00610666, Final residual = 0.000437818, No Iterations 1
time step continuity errors : sum local = 0.0155983, global = 0.000309575, cumulative = -0.202429
smoothSolver:  Solving for omega, Initial residual = 1.4626e-07, Final residual = 9.67025e-09, No Iterations 3
smoothSolver:  Solving for k, Initial residual = 0.000156686, Final residual = 7.74315e-06, No Iterations 4
ExecutionTime = 36.25 s  ClockTime = 36 s

Time = 987

smoothSolver:  Solving for Ux, Initial residual = 0.000333431, Final residual = 3.27669e-05, No Iterations 3
smoothSolver:  Solving for Uy, Initial residual = 8.55495e-06, Final residual = 7.37201e-07, No Iterations 5
GAMG:  Solving for p, Initial residual = 0.00585266, Final residual = 0.000438188, No Iterations 1
time step continuity errors : sum local = 0.0156245, global = 0.000272777, cumulative = -0.202156
smoothSolver:  Solving for omega, Initial residual = 1.50206e-07, Final residual = 9.66858e-09, No Iterations 3
smoothSolver:  Solving for k, Initial residual = 0.000156412, Final residual = 7.72818e-06, No Iterations 4
ExecutionTime = 36.28 s  ClockTime = 36 s

Time = 988

smoothSolver:  Solving for Ux, Initial residual = 0.000333309, Final residual = 3.27517e-05, No Iterations 3
smoothSolver:  Solving for Uy, Initial residual = 7.79279e-06, Final residual = 7.32712e-07, No Iterations 5
GAMG:  Solving for p, Initial residual = 0.0058224, Final residual = 0.000430184, No Iterations 1
time step continuity errors : sum local = 0.0153323, global = 0.000198245, cumulative = -0.201958
smoothSolver:  Solving for omega, Initial residual = 1.49111e-07, Final residual = 9.59863e-09, No Iterations 3
smoothSolver:  Solving for k, Initial residual = 0.000155962, Final residual = 7.71302e-06, No Iterations 4
ExecutionTime = 36.31 s  ClockTime = 36 s

Time = 989

smoothSolver:  Solving for Ux, Initial residual = 0.000333372, Final residual = 3.27622e-05, No Iterations 3
smoothSolver:  Solving for Uy, Initial residual = 7.74654e-06, Final residual = 7.30531e-07, No Iterations 5
GAMG:  Solving for p, Initial residual = 0.00578404, Final residual = 0.000431189, No Iterations 1
time step continuity errors : sum local = 0.015377, global = 0.000100473, cumulative = -0.201858
smoothSolver:  Solving for omega, Initial residual = 1.44636e-07, Final residual = 9.57358e-09, No Iterations 3
smoothSolver:  Solving for k, Initial residual = 0.000155636, Final residual = 7.69785e-06, No Iterations 4
ExecutionTime = 36.34 s  ClockTime = 36 s

Time = 990

smoothSolver:  Solving for Ux, Initial residual = 0.000333326, Final residual = 3.27578e-05, No Iterations 3
smoothSolver:  Solving for Uy, Initial residual = 7.71549e-06, Final residual = 7.28404e-07, No Iterations 5
GAMG:  Solving for p, Initial residual = 0.00558348, Final residual = 0.000427923, No Iterations 1
time step continuity errors : sum local = 0.0152447, global = -3.98025e-06, cumulative = -0.201862
smoothSolver:  Solving for omega, Initial residual = 1.45382e-07, Final residual = 9.65826e-09, No Iterations 3
smoothSolver:  Solving for k, Initial residual = 0.000155324, Final residual = 7.68272e-06, No Iterations 4
ExecutionTime = 36.37 s  ClockTime = 36 s

Time = 991

smoothSolver:  Solving for Ux, Initial residual = 0.000333305, Final residual = 3.27563e-05, No Iterations 3
smoothSolver:  Solving for Uy, Initial residual = 7.6659e-06, Final residual = 7.25319e-07, No Iterations 5
GAMG:  Solving for p, Initial residual = 0.0055062, Final residual = 0.000418453, No Iterations 1
time step continuity errors : sum local = 0.0148814, global = -9.7697e-05, cumulative = -0.201959
smoothSolver:  Solving for omega, Initial residual = 1.44623e-07, Final residual = 9.68511e-09, No Iterations 3
smoothSolver:  Solving for k, Initial residual = 0.000155018, Final residual = 7.66767e-06, No Iterations 4
ExecutionTime = 36.4 s  ClockTime = 36 s

Time = 992

smoothSolver:  Solving for Ux, Initial residual = 0.000333275, Final residual = 3.27537e-05, No Iterations 3
smoothSolver:  Solving for Uy, Initial residual = 7.61051e-06, Final residual = 7.22733e-07, No Iterations 5
GAMG:  Solving for p, Initial residual = 0.00547052, Final residual = 0.000417802, No Iterations 1
time step continuity errors : sum local = 0.0148431, global = -0.000166327, cumulative = -0.202126
smoothSolver:  Solving for omega, Initial residual = 1.42611e-07, Final residual = 9.68281e-09, No Iterations 3
smoothSolver:  Solving for k, Initial residual = 0.000154714, Final residual = 7.65265e-06, No Iterations 4
ExecutionTime = 36.43 s  ClockTime = 36 s

Time = 993

smoothSolver:  Solving for Ux, Initial residual = 0.000333214, Final residual = 3.27477e-05, No Iterations 3
smoothSolver:  Solving for Uy, Initial residual = 7.62306e-06, Final residual = 7.22138e-07, No Iterations 5
GAMG:  Solving for p, Initial residual = 0.00537269, Final residual = 0.000420581, No Iterations 1
time step continuity errors : sum local = 0.0149341, global = -0.00019778, cumulative = -0.202323
smoothSolver:  Solving for omega, Initial residual = 1.42163e-07, Final residual = 9.67326e-09, No Iterations 3
smoothSolver:  Solving for k, Initial residual = 0.000154411, Final residual = 7.63772e-06, No Iterations 4
ExecutionTime = 36.46 s  ClockTime = 36 s

Time = 994

smoothSolver:  Solving for Ux, Initial residual = 0.000333179, Final residual = 3.27456e-05, No Iterations 3
smoothSolver:  Solving for Uy, Initial residual = 8.86667e-06, Final residual = 7.32945e-07, No Iterations 5
GAMG:  Solving for p, Initial residual = 0.00582905, Final residual = 0.000427173, No Iterations 1
time step continuity errors : sum local = 0.0151589, global = -0.000184541, cumulative = -0.202508
smoothSolver:  Solving for omega, Initial residual = 1.43201e-07, Final residual = 9.69599e-09, No Iterations 3
smoothSolver:  Solving for k, Initial residual = 0.000155949, Final residual = 7.62962e-06, No Iterations 4
ExecutionTime = 36.49 s  ClockTime = 36 s

Time = 995

smoothSolver:  Solving for Ux, Initial residual = 0.000333144, Final residual = 3.27413e-05, No Iterations 3
smoothSolver:  Solving for Uy, Initial residual = 3.2698e-05, Final residual = 3.22152e-06, No Iterations 2
GAMG:  Solving for p, Initial residual = 0.00519481, Final residual = 0.000417796, No Iterations 1
time step continuity errors : sum local = 0.0148087, global = -0.000130001, cumulative = -0.202638
smoothSolver:  Solving for omega, Initial residual = 1.50736e-07, Final residual = 9.55626e-09, No Iterations 3
smoothSolver:  Solving for k, Initial residual = 0.000174261, Final residual = 1.61028e-05, No Iterations 3
ExecutionTime = 36.53 s  ClockTime = 36 s

Time = 996

smoothSolver:  Solving for Ux, Initial residual = 0.000333019, Final residual = 3.27307e-05, No Iterations 3
smoothSolver:  Solving for Uy, Initial residual = 1.00483e-05, Final residual = 9.63973e-07, No Iterations 5
GAMG:  Solving for p, Initial residual = 0.00518459, Final residual = 0.000394013, No Iterations 1
time step continuity errors : sum local = 0.0139775, global = -4.25149e-05, cumulative = -0.20268
smoothSolver:  Solving for omega, Initial residual = 1.73856e-07, Final residual = 9.67789e-09, No Iterations 3
smoothSolver:  Solving for k, Initial residual = 0.000154999, Final residual = 7.6204e-06, No Iterations 4
ExecutionTime = 36.56 s  ClockTime = 36 s

Time = 997

smoothSolver:  Solving for Ux, Initial residual = 0.00033298, Final residual = 3.27087e-05, No Iterations 3
smoothSolver:  Solving for Uy, Initial residual = 9.13262e-06, Final residual = 7.79738e-07, No Iterations 5
GAMG:  Solving for p, Initial residual = 0.00565782, Final residual = 0.00040939, No Iterations 1
time step continuity errors : sum local = 0.0145215, global = 6.07831e-05, cumulative = -0.20262
smoothSolver:  Solving for omega, Initial residual = 1.60618e-07, Final residual = 9.58715e-09, No Iterations 3
smoothSolver:  Solving for k, Initial residual = 0.000153814, Final residual = 7.59343e-06, No Iterations 4
ExecutionTime = 36.59 s  ClockTime = 36 s

Time = 998

smoothSolver:  Solving for Ux, Initial residual = 0.000332956, Final residual = 3.27263e-05, No Iterations 3
smoothSolver:  Solving for Uy, Initial residual = 7.78367e-06, Final residual = 7.34382e-07, No Iterations 5
GAMG:  Solving for p, Initial residual = 0.00563201, Final residual = 0.000403905, No Iterations 1
time step continuity errors : sum local = 0.0143419, global = 0.000162837, cumulative = -0.202457
smoothSolver:  Solving for omega, Initial residual = 1.48234e-07, Final residual = 9.56174e-09, No Iterations 3
smoothSolver:  Solving for k, Initial residual = 0.000153282, Final residual = 7.575e-06, No Iterations 4
ExecutionTime = 36.62 s  ClockTime = 36 s

Time = 999

smoothSolver:  Solving for Ux, Initial residual = 0.000332924, Final residual = 3.27236e-05, No Iterations 3
smoothSolver:  Solving for Uy, Initial residual = 7.68588e-06, Final residual = 7.24717e-07, No Iterations 5
GAMG:  Solving for p, Initial residual = 0.00532427, Final residual = 0.000404556, No Iterations 1
time step continuity errors : sum local = 0.0143852, global = 0.000247738, cumulative = -0.202209
smoothSolver:  Solving for omega, Initial residual = 1.48063e-07, Final residual = 9.52501e-09, No Iterations 3
smoothSolver:  Solving for k, Initial residual = 0.000152885, Final residual = 7.55838e-06, No Iterations 4
ExecutionTime = 36.65 s  ClockTime = 36 s

Time = 1000

smoothSolver:  Solving for Ux, Initial residual = 0.000332869, Final residual = 3.27188e-05, No Iterations 3
smoothSolver:  Solving for Uy, Initial residual = 7.67472e-06, Final residual = 7.20398e-07, No Iterations 5
GAMG:  Solving for p, Initial residual = 0.00574235, Final residual = 0.000437206, No Iterations 1
time step continuity errors : sum local = 0.0155556, global = 0.000301862, cumulative = -0.201907
smoothSolver:  Solving for omega, Initial residual = 1.43439e-07, Final residual = 9.51711e-09, No Iterations 3
smoothSolver:  Solving for k, Initial residual = 0.000152535, Final residual = 7.54243e-06, No Iterations 4
ExecutionTime = 36.76 s  ClockTime = 36 s

    functionObjects::turbulenceFields stressComponents writing field: turbulenceProperties:devReff

    functionObjects::pressure pressureCoefficient writing field: cp
writeCellCentres writeCellCentres write:
    writing cell-centres field C to 1000
    Writing the x component field of the cell-centres Cx to 1000
    Writing the y component field of the cell-centres Cy to 1000
    Writing the z component field of the cell-centres Cz to 1000
wallShearStress wallShearStress write:
    writing field wallShearStress
    min/max(upperWall) = (-13.2514 -0.0414008 -3.96326e-20), (-2.76337 0.00158235 1.72902e-20)
    min/max(lowerWall) = (-13.6147 -4.97006 -1.05683e-18), (1.91069 0.320874 1.60122e-18)
End

