/*---------------------------------------------------------------------------*\
| =========                 |                                                 |
| \\      /  F ield         | OpenFOAM: The Open Source CFD Toolbox           |
|  \\    /   O peration     | Version:  2306                                  |
|   \\  /    A nd           | Website:  www.openfoam.com                      |
|    \\/     M anipulation  |                                                 |
\*---------------------------------------------------------------------------*/
Build  : _fbf00d6b-20230626 OPENFOAM=2306 version=2306
Arch   : "LSB;label=32;scalar=64"
Exec   : myDPMFoam
Date   : Nov 29 2023
Time   : 22:06:10
Host   : johanes2022
PID    : 1380
I/O    : uncollated
Case   : /home/juan/OpenFOAM/juan-v2306/run/Skill_Lync/Introduction_to_OpenFOAM_development/Week4/myGoldschmidt
nProcs : 1
trapFpe: Floating point exception trapping enabled (FOAM_SIGFPE).
fileModificationChecking : Monitoring run-time modified files using timeStampMaster (fileModificationSkew 5, maxFileModificationPolls 20)
allowSystemOperations : Allowing user-supplied system call operations

// * * * * * * * * * * * * * * * * * * * * * * * * * * * * * * * * * * * * * //
Create time

Create mesh for time = 0


PIMPLE: Operating solver in PISO mode


Reading g
Reading field U

Reading field p

Reading/calculating continuous-phase face flux field phic

Creating turbulence model

Selecting incompressible transport model Newtonian
Creating field alphac

Constructing kinematicCloud kinematicCloud
Constructing particle forces
    Selecting particle force ErgunWenYuDrag
    Selecting particle force gravity
Constructing cloud functions
    none
Constructing particle injection models
Creating injector: model1
Selecting injection model manualInjection
    Constructing 3-D injection
    Choosing nParticle to be a fixed value, massTotal variable now does not determine anything.
Selecting distribution model fixedValue
Selecting dispersion model none
Selecting patch interaction model localInteraction
    Interaction fields will not be written
Selecting stochastic collision model none
Selecting surface film model none
Selecting packing model none
Selecting damping model none
Selecting isotropy model none
Selecting U integration scheme Euler
Selecting collision model pairCollision
Selecting pair model pairSpringSliderDashpot
Selecting wall model wallSpringSliderDashpot
Building InteractionLists with interaction distance 0.0025
    Building referred interaction lists
    Building direct interaction lists
Selecting turbulence model type laminar
Selecting laminar stress model Stokes

Starting time loop

Courant Number mean: 4.16667e-05 max: 0.00375
Time = 2e-05

Evolving kinematicCloud

Solving3-D cloud kinematicCloud

Cloud: kinematicCloud injector: model1
    Added 24750 new parcels

Cloud: kinematicCloud
    Current number of parcels       = 24750
    Current mass in system          = 0.511478
    Linear momentum                 = (-5.83467e-27 -7.28577e-44 -0.000200594)
   |Linear momentum|                = 0.000200594
    Linear kinetic energy           = 3.93349e-08
    Average particle per parcel     = 1
    Injector model1:
      - parcels added               = 24750
      - mass introduced             = 0.511478
    Surface film:
      - parcels absorbed            = 0
      - mass absorbed               = 0
      - parcels ejected             = 0
    Parcel fate: system (number, mass)
      - escape                      = 0, 0
    Parcel fate: patch (top|bottom|walls|frontAndBack) (number, mass)
      - escape                      = 0, 0
      - stick                       = 0, 0
    Rotational kinetic energy       = 0

PIMPLE: iteration 1
smoothSolver:  Solving for U.airx, Initial residual = 0.691517, Final residual = 1.10543e-10, No Iterations 1
smoothSolver:  Solving for U.airy, Initial residual = 0.91166, Final residual = 1.92322e-10, No Iterations 1
smoothSolver:  Solving for U.airz, Initial residual = 1, Final residual = 2.50316e-10, No Iterations 1
GAMG:  Solving for p, Initial residual = 1, Final residual = 0.00968016, No Iterations 18
time step continuity errors : sum local = 8.06851e-07, global = -2.35511e-07, cumulative = -2.35511e-07
GAMG:  Solving for p, Initial residual = 5.35858e-05, Final residual = 9.63349e-07, No Iterations 14
time step continuity errors : sum local = 1.4466e-08, global = -4.23021e-09, cumulative = -2.39741e-07
ExecutionTime = 0.45 s  ClockTime = 0 s

Courant Number mean: 0.00988246 max: 0.0143767
Time = 4e-05

Evolving kinematicCloud

Solving3-D cloud kinematicCloud
Cloud: kinematicCloud
    Current number of parcels       = 24750
    Current mass in system          = 0.511478
    Linear momentum                 = (-1.8422e-09 8.29638e-11 -0.000257077)
   |Linear momentum|                = 0.000257077
    Linear kinetic energy           = 6.52251e-08
    Average particle per parcel     = 1
    Injector model1:
      - parcels added               = 24750
      - mass introduced             = 0.511478
    Surface film:
      - parcels absorbed            = 0
      - mass absorbed               = 0
      - parcels ejected             = 0
    Parcel fate: system (number, mass)
      - escape                      = 0, 0
    Parcel fate: patch (top|bottom|walls|frontAndBack) (number, mass)
      - escape                      = 0, 0
      - stick                       = 0, 0
    Rotational kinetic energy       = 0

PIMPLE: iteration 1
smoothSolver:  Solving for U.airx, Initial residual = 0.310774, Final residual = 1.54794e-07, No Iterations 1
smoothSolver:  Solving for U.airy, Initial residual = 0.313158, Final residual = 1.27035e-07, No Iterations 1
smoothSolver:  Solving for U.airz, Initial residual = 0.859077, Final residual = 3.14278e-07, No Iterations 1
GAMG:  Solving for p, Initial residual = 0.716864, Final residual = 0.00209709, No Iterations 2
time step continuity errors : sum local = 0.000111366, global = 2.25657e-05, cumulative = 2.23259e-05
GAMG:  Solving for p, Initial residual = 0.00329854, Final residual = 7.11395e-07, No Iterations 25
time step continuity errors : sum local = 5.78417e-08, global = 1.95284e-08, cumulative = 2.23454e-05
ExecutionTime = 0.54 s  ClockTime = 0 s

Courant Number mean: 0.0581171 max: 0.180108
Time = 6e-05

Evolving kinematicCloud

Solving3-D cloud kinematicCloud
    2 move-collide subCycles
Cloud: kinematicCloud
    Current number of parcels       = 24750
    Current mass in system          = 0.511478
    Linear momentum                 = (-0.00048258 -3.26398e-06 -0.000186338)
   |Linear momentum|                = 0.000517316
    Linear kinetic energy           = 8.92054e-07
    Average particle per parcel     = 1
    Injector model1:
      - parcels added               = 24750
      - mass introduced             = 0.511478
    Surface film:
      - parcels absorbed            = 0
      - mass absorbed               = 0
      - parcels ejected             = 0
    Parcel fate: system (number, mass)
      - escape                      = 0, 0
    Parcel fate: patch (top|bottom|walls|frontAndBack) (number, mass)
      - escape                      = 0, 0
      - stick                       = 0, 0
    Rotational kinetic energy       = 0

PIMPLE: iteration 1
smoothSolver:  Solving for U.airx, Initial residual = 0.299055, Final residual = 9.55656e-08, No Iterations 2
smoothSolver:  Solving for U.airy, Initial residual = 0.276545, Final residual = 6.00613e-08, No Iterations 2
smoothSolver:  Solving for U.airz, Initial residual = 0.267893, Final residual = 4.64234e-08, No Iterations 2
GAMG:  Solving for p, Initial residual = 0.971955, Final residual = 0.00321207, No Iterations 2
time step continuity errors : sum local = 0.000325228, global = 1.01611e-06, cumulative = 2.33616e-05
GAMG:  Solving for p, Initial residual = 0.029165, Final residual = 9.44368e-07, No Iterations 19
time step continuity errors : sum local = 1.24247e-07, global = 3.61751e-08, cumulative = 2.33977e-05
ExecutionTime = 0.74 s  ClockTime = 0 s

Courant Number mean: 0.0659529 max: 0.188547
Time = 8e-05

Evolving kinematicCloud

Solving3-D cloud kinematicCloud
    2 move-collide subCycles
Cloud: kinematicCloud
    Current number of parcels       = 24750
    Current mass in system          = 0.511478
    Linear momentum                 = (0.000213331 -6.34993e-06 -0.000119069)
   |Linear momentum|                = 0.000244392
    Linear kinetic energy           = 4.26031e-07
    Average particle per parcel     = 1
    Injector model1:
      - parcels added               = 24750
      - mass introduced             = 0.511478
    Surface film:
      - parcels absorbed            = 0
      - mass absorbed               = 0
      - parcels ejected             = 0
    Parcel fate: system (number, mass)
      - escape                      = 0, 0
    Parcel fate: patch (top|bottom|walls|frontAndBack) (number, mass)
      - escape                      = 0, 0
      - stick                       = 0, 0
    Rotational kinetic energy       = 0

PIMPLE: iteration 1
smoothSolver:  Solving for U.airx, Initial residual = 0.471075, Final residual = 1.0352e-07, No Iterations 2
smoothSolver:  Solving for U.airy, Initial residual = 0.473405, Final residual = 8.51851e-08, No Iterations 2
smoothSolver:  Solving for U.airz, Initial residual = 0.460598, Final residual = 8.68844e-08, No Iterations 2
GAMG:  Solving for p, Initial residual = 0.956787, Final residual = 0.00180114, No Iterations 2
time step continuity errors : sum local = 0.000199222, global = -4.35239e-07, cumulative = 2.29625e-05
GAMG:  Solving for p, Initial residual = 0.0485935, Final residual = 8.13079e-07, No Iterations 19
time step continuity errors : sum local = 7.49986e-08, global = -2.19375e-08, cumulative = 2.29405e-05
ExecutionTime = 0.92 s  ClockTime = 0 s

Courant Number mean: 0.039774 max: 0.188234
Time = 0.0001

Evolving kinematicCloud

Solving3-D cloud kinematicCloud
    2 move-collide subCycles
Cloud: kinematicCloud
    Current number of parcels       = 24750
    Current mass in system          = 0.511478
    Linear momentum                 = (-7.75189e-06 -7.64044e-06 -0.000125486)
   |Linear momentum|                = 0.000125958
    Linear kinetic energy           = 5.24264e-07
    Average particle per parcel     = 1
    Injector model1:
      - parcels added               = 24750
      - mass introduced             = 0.511478
    Surface film:
      - parcels absorbed            = 0
      - mass absorbed               = 0
      - parcels ejected             = 0
    Parcel fate: system (number, mass)
      - escape                      = 0, 0
    Parcel fate: patch (top|bottom|walls|frontAndBack) (number, mass)
      - escape                      = 0, 0
      - stick                       = 0, 0
    Rotational kinetic energy       = 0

PIMPLE: iteration 1
smoothSolver:  Solving for U.airx, Initial residual = 0.573448, Final residual = 8.28858e-08, No Iterations 2
smoothSolver:  Solving for U.airy, Initial residual = 0.424523, Final residual = 5.34411e-08, No Iterations 2
smoothSolver:  Solving for U.airz, Initial residual = 0.478408, Final residual = 4.24505e-08, No Iterations 2
GAMG:  Solving for p, Initial residual = 0.703975, Final residual = 0.00197829, No Iterations 2
time step continuity errors : sum local = 0.000173586, global = 1.79669e-07, cumulative = 2.31202e-05
GAMG:  Solving for p, Initial residual = 0.0191621, Final residual = 7.42992e-07, No Iterations 13
time step continuity errors : sum local = 6.09228e-08, global = -1.84111e-08, cumulative = 2.31018e-05
ExecutionTime = 1.08 s  ClockTime = 1 s

Courant Number mean: 0.053848 max: 0.191657
Time = 0.00012

Evolving kinematicCloud

Solving3-D cloud kinematicCloud
    2 move-collide subCycles
Cloud: kinematicCloud
    Current number of parcels       = 24750
    Current mass in system          = 0.511478
    Linear momentum                 = (-0.000411942 -1.06083e-05 -8.00044e-05)
   |Linear momentum|                = 0.000419773
    Linear kinetic energy           = 1.02738e-06
    Average particle per parcel     = 1
    Injector model1:
      - parcels added               = 24750
      - mass introduced             = 0.511478
    Surface film:
      - parcels absorbed            = 0
      - mass absorbed               = 0
      - parcels ejected             = 0
    Parcel fate: system (number, mass)
      - escape                      = 0, 0
    Parcel fate: patch (top|bottom|walls|frontAndBack) (number, mass)
      - escape                      = 0, 0
      - stick                       = 0, 0
    Rotational kinetic energy       = 0

PIMPLE: iteration 1
smoothSolver:  Solving for U.airx, Initial residual = 0.278607, Final residual = 4.92455e-08, No Iterations 2
smoothSolver:  Solving for U.airy, Initial residual = 0.386105, Final residual = 4.12997e-08, No Iterations 2
smoothSolver:  Solving for U.airz, Initial residual = 0.359802, Final residual = 3.33266e-08, No Iterations 2
GAMG:  Solving for p, Initial residual = 0.860005, Final residual = 0.00227392, No Iterations 2
time step continuity errors : sum local = 0.000175148, global = 1.758e-07, cumulative = 2.32776e-05
GAMG:  Solving for p, Initial residual = 0.0305323, Final residual = 9.38276e-07, No Iterations 15
time step continuity errors : sum local = 6.99219e-08, global = 2.37087e-08, cumulative = 2.33013e-05
ExecutionTime = 1.26 s  ClockTime = 1 s

Courant Number mean: 0.0372281 max: 0.174628
Time = 0.00014

Evolving kinematicCloud

Solving3-D cloud kinematicCloud
    2 move-collide subCycles
Cloud: kinematicCloud
    Current number of parcels       = 24750
    Current mass in system          = 0.511478
    Linear momentum                 = (-0.000325303 -1.42417e-05 -8.82271e-05)
   |Linear momentum|                = 0.000337356
    Linear kinetic energy           = 9.79063e-07
    Average particle per parcel     = 1
    Injector model1:
      - parcels added               = 24750
      - mass introduced             = 0.511478
    Surface film:
      - parcels absorbed            = 0
      - mass absorbed               = 0
      - parcels ejected             = 0
    Parcel fate: system (number, mass)
      - escape                      = 0, 0
    Parcel fate: patch (top|bottom|walls|frontAndBack) (number, mass)
      - escape                      = 0, 0
      - stick                       = 0, 0
    Rotational kinetic energy       = 0

PIMPLE: iteration 1
smoothSolver:  Solving for U.airx, Initial residual = 0.48952, Final residual = 4.44634e-08, No Iterations 2
smoothSolver:  Solving for U.airy, Initial residual = 0.485003, Final residual = 2.77431e-08, No Iterations 2
smoothSolver:  Solving for U.airz, Initial residual = 0.476726, Final residual = 2.04181e-08, No Iterations 2
GAMG:  Solving for p, Initial residual = 0.737623, Final residual = 0.00188306, No Iterations 2
time step continuity errors : sum local = 0.000112755, global = 1.27425e-07, cumulative = 2.34287e-05
GAMG:  Solving for p, Initial residual = 0.0278835, Final residual = 8.6401e-07, No Iterations 11
time step continuity errors : sum local = 3.70566e-08, global = 7.84465e-09, cumulative = 2.34366e-05
ExecutionTime = 1.45 s  ClockTime = 1 s

Courant Number mean: 0.0279462 max: 0.168909
Time = 0.00016

Evolving kinematicCloud

Solving3-D cloud kinematicCloud
    2 move-collide subCycles
Cloud: kinematicCloud
    Current number of parcels       = 24750
    Current mass in system          = 0.511478
    Linear momentum                 = (-0.000213572 -1.60422e-05 -0.000114403)
   |Linear momentum|                = 0.000242813
    Linear kinetic energy           = 9.6471e-07
    Average particle per parcel     = 1
    Injector model1:
      - parcels added               = 24750
      - mass introduced             = 0.511478
    Surface film:
      - parcels absorbed            = 0
      - mass absorbed               = 0
      - parcels ejected             = 0
    Parcel fate: system (number, mass)
      - escape                      = 0, 0
    Parcel fate: patch (top|bottom|walls|frontAndBack) (number, mass)
      - escape                      = 0, 0
      - stick                       = 0, 0
    Rotational kinetic energy       = 0

PIMPLE: iteration 1
smoothSolver:  Solving for U.airx, Initial residual = 0.306273, Final residual = 9.96389e-09, No Iterations 2
smoothSolver:  Solving for U.airy, Initial residual = 0.461858, Final residual = 8.95406e-09, No Iterations 2
smoothSolver:  Solving for U.airz, Initial residual = 0.423527, Final residual = 1.0041e-08, No Iterations 2
GAMG:  Solving for p, Initial residual = 0.761491, Final residual = 0.00210592, No Iterations 2
time step continuity errors : sum local = 7.34334e-05, global = -6.80471e-08, cumulative = 2.33685e-05
GAMG:  Solving for p, Initial residual = 0.0193492, Final residual = 9.68803e-07, No Iterations 11
time step continuity errors : sum local = 2.50993e-08, global = -6.26197e-09, cumulative = 2.33623e-05
ExecutionTime = 1.63 s  ClockTime = 1 s

Courant Number mean: 0.020082 max: 0.157238
Time = 0.00018

Evolving kinematicCloud

Solving3-D cloud kinematicCloud
    2 move-collide subCycles
Cloud: kinematicCloud
    Current number of parcels       = 24750
    Current mass in system          = 0.511478
    Linear momentum                 = (-0.000195053 -1.75781e-05 -0.000159028)
   |Linear momentum|                = 0.000252279
    Linear kinetic energy           = 1.04042e-06
    Average particle per parcel     = 1
    Injector model1:
      - parcels added               = 24750
      - mass introduced             = 0.511478
    Surface film:
      - parcels absorbed            = 0
      - mass absorbed               = 0
      - parcels ejected             = 0
    Parcel fate: system (number, mass)
      - escape                      = 0, 0
    Parcel fate: patch (top|bottom|walls|frontAndBack) (number, mass)
      - escape                      = 0, 0
      - stick                       = 0, 0
    Rotational kinetic energy       = 0

PIMPLE: iteration 1
smoothSolver:  Solving for U.airx, Initial residual = 0.298415, Final residual = 8.42345e-09, No Iterations 2
smoothSolver:  Solving for U.airy, Initial residual = 0.449414, Final residual = 5.63464e-09, No Iterations 2
smoothSolver:  Solving for U.airz, Initial residual = 0.401832, Final residual = 4.30277e-09, No Iterations 2
GAMG:  Solving for p, Initial residual = 0.743956, Final residual = 0.00247864, No Iterations 2
time step continuity errors : sum local = 5.36307e-05, global = 6.93695e-08, cumulative = 2.34316e-05
GAMG:  Solving for p, Initial residual = 0.013832, Final residual = 9.95182e-07, No Iterations 17
time step continuity errors : sum local = 1.65164e-08, global = 5.54606e-09, cumulative = 2.34372e-05
ExecutionTime = 1.82 s  ClockTime = 1 s

Courant Number mean: 0.0173394 max: 0.152715
Time = 0.0002

Evolving kinematicCloud

Solving3-D cloud kinematicCloud
    2 move-collide subCycles
Cloud: kinematicCloud
    Current number of parcels       = 24750
    Current mass in system          = 0.511478
    Linear momentum                 = (-0.000198681 -1.85034e-05 -0.000211946)
   |Linear momentum|                = 0.000291097
    Linear kinetic energy           = 1.12421e-06
    Average particle per parcel     = 1
    Injector model1:
      - parcels added               = 24750
      - mass introduced             = 0.511478
    Surface film:
      - parcels absorbed            = 0
      - mass absorbed               = 0
      - parcels ejected             = 0
    Parcel fate: system (number, mass)
      - escape                      = 0, 0
    Parcel fate: patch (top|bottom|walls|frontAndBack) (number, mass)
      - escape                      = 0, 0
      - stick                       = 0, 0
    Rotational kinetic energy       = 0

PIMPLE: iteration 1
smoothSolver:  Solving for U.airx, Initial residual = 0.227423, Final residual = 3.66565e-09, No Iterations 2
smoothSolver:  Solving for U.airy, Initial residual = 0.381407, Final residual = 2.63533e-09, No Iterations 2
smoothSolver:  Solving for U.airz, Initial residual = 0.332503, Final residual = 2.55374e-09, No Iterations 2
GAMG:  Solving for p, Initial residual = 0.724145, Final residual = 0.00302884, No Iterations 2
time step continuity errors : sum local = 4.37662e-05, global = 5.22705e-09, cumulative = 2.34424e-05
GAMG:  Solving for p, Initial residual = 0.0113232, Final residual = 9.7238e-07, No Iterations 8
time step continuity errors : sum local = 1.19646e-08, global = -3.1631e-09, cumulative = 2.34393e-05
ExecutionTime = 2.01 s  ClockTime = 2 s

Courant Number mean: 0.0152071 max: 0.114313
Time = 0.00022

Evolving kinematicCloud

Solving3-D cloud kinematicCloud
    2 move-collide subCycles
Cloud: kinematicCloud
    Current number of parcels       = 24750
    Current mass in system          = 0.511478
    Linear momentum                 = (-0.000206889 -1.90999e-05 -0.000268559)
   |Linear momentum|                = 0.000339547
    Linear kinetic energy           = 1.2171e-06
    Average particle per parcel     = 1
    Injector model1:
      - parcels added               = 24750
      - mass introduced             = 0.511478
    Surface film:
      - parcels absorbed            = 0
      - mass absorbed               = 0
      - parcels ejected             = 0
    Parcel fate: system (number, mass)
      - escape                      = 0, 0
    Parcel fate: patch (top|bottom|walls|frontAndBack) (number, mass)
      - escape                      = 0, 0
      - stick                       = 0, 0
    Rotational kinetic energy       = 0

PIMPLE: iteration 1
smoothSolver:  Solving for U.airx, Initial residual = 0.165675, Final residual = 1.08006e-09, No Iterations 2
smoothSolver:  Solving for U.airy, Initial residual = 0.373712, Final residual = 1.36995e-09, No Iterations 2
smoothSolver:  Solving for U.airz, Initial residual = 0.308221, Final residual = 1.11647e-09, No Iterations 2
GAMG:  Solving for p, Initial residual = 0.73085, Final residual = 0.00314612, No Iterations 2
time step continuity errors : sum local = 3.21917e-05, global = 1.82039e-08, cumulative = 2.34575e-05
GAMG:  Solving for p, Initial residual = 0.0110017, Final residual = 9.1111e-07, No Iterations 10
time step continuity errors : sum local = 7.37552e-09, global = 2.30706e-09, cumulative = 2.34598e-05
ExecutionTime = 2.19 s  ClockTime = 2 s

Courant Number mean: 0.0135076 max: 0.0822002
Time = 0.00024

Evolving kinematicCloud

Solving3-D cloud kinematicCloud
    2 move-collide subCycles
Cloud: kinematicCloud
    Current number of parcels       = 24750
    Current mass in system          = 0.511478
    Linear momentum                 = (-0.000213883 -1.93942e-05 -0.000327296)
   |Linear momentum|                = 0.000391465
    Linear kinetic energy           = 1.31419e-06
    Average particle per parcel     = 1
    Injector model1:
      - parcels added               = 24750
      - mass introduced             = 0.511478
    Surface film:
      - parcels absorbed            = 0
      - mass absorbed               = 0
      - parcels ejected             = 0
    Parcel fate: system (number, mass)
      - escape                      = 0, 0
    Parcel fate: patch (top|bottom|walls|frontAndBack) (number, mass)
      - escape                      = 0, 0
      - stick                       = 0, 0
    Rotational kinetic energy       = 0

PIMPLE: iteration 1
smoothSolver:  Solving for U.airx, Initial residual = 0.107031, Final residual = 5.23089e-06, No Iterations 1
smoothSolver:  Solving for U.airy, Initial residual = 0.318577, Final residual = 5.10992e-10, No Iterations 2
smoothSolver:  Solving for U.airz, Initial residual = 0.242228, Final residual = 4.10423e-10, No Iterations 2
GAMG:  Solving for p, Initial residual = 0.721893, Final residual = 0.00343181, No Iterations 2
time step continuity errors : sum local = 2.43923e-05, global = 1.4806e-08, cumulative = 2.34746e-05
GAMG:  Solving for p, Initial residual = 0.00957091, Final residual = 8.04211e-07, No Iterations 14
time step continuity errors : sum local = 4.90394e-09, global = 1.61394e-09, cumulative = 2.34762e-05
ExecutionTime = 2.37 s  ClockTime = 2 s

Courant Number mean: 0.0126091 max: 0.0767199
Time = 0.00026

Evolving kinematicCloud

Solving3-D cloud kinematicCloud
    2 move-collide subCycles
Cloud: kinematicCloud
    Current number of parcels       = 24750
    Current mass in system          = 0.511478
    Linear momentum                 = (-0.000218593 -1.95964e-05 -0.000387818)
   |Linear momentum|                = 0.000445612
    Linear kinetic energy           = 1.41393e-06
    Average particle per parcel     = 1
    Injector model1:
      - parcels added               = 24750
      - mass introduced             = 0.511478
    Surface film:
      - parcels absorbed            = 0
      - mass absorbed               = 0
      - parcels ejected             = 0
    Parcel fate: system (number, mass)
      - escape                      = 0, 0
    Parcel fate: patch (top|bottom|walls|frontAndBack) (number, mass)
      - escape                      = 0, 0
      - stick                       = 0, 0
    Rotational kinetic energy       = 0

PIMPLE: iteration 1
smoothSolver:  Solving for U.airx, Initial residual = 0.096645, Final residual = 4.32549e-06, No Iterations 1
smoothSolver:  Solving for U.airy, Initial residual = 0.31382, Final residual = 9.3813e-06, No Iterations 1
smoothSolver:  Solving for U.airz, Initial residual = 0.220535, Final residual = 5.89948e-06, No Iterations 1
GAMG:  Solving for p, Initial residual = 0.706995, Final residual = 0.00368486, No Iterations 2
time step continuity errors : sum local = 1.93895e-05, global = 2.54388e-08, cumulative = 2.35016e-05
GAMG:  Solving for p, Initial residual = 0.0101789, Final residual = 9.36982e-07, No Iterations 15
time step continuity errors : sum local = 4.13857e-09, global = 1.40156e-09, cumulative = 2.3503e-05
ExecutionTime = 2.55 s  ClockTime = 2 s

Courant Number mean: 0.012082 max: 0.109524
Time = 0.00028

Evolving kinematicCloud

Solving3-D cloud kinematicCloud
    3 move-collide subCycles
Cloud: kinematicCloud
    Current number of parcels       = 24750
    Current mass in system          = 0.511478
    Linear momentum                 = (-0.000223087 -1.98273e-05 -0.000449068)
   |Linear momentum|                = 0.000501819
    Linear kinetic energy           = 1.51818e-06
    Average particle per parcel     = 1
    Injector model1:
      - parcels added               = 24750
      - mass introduced             = 0.511478
    Surface film:
      - parcels absorbed            = 0
      - mass absorbed               = 0
      - parcels ejected             = 0
    Parcel fate: system (number, mass)
      - escape                      = 0, 0
    Parcel fate: patch (top|bottom|walls|frontAndBack) (number, mass)
      - escape                      = 0, 0
      - stick                       = 0, 0
    Rotational kinetic energy       = 0

PIMPLE: iteration 1
smoothSolver:  Solving for U.airx, Initial residual = 0.0701126, Final residual = 2.8025e-06, No Iterations 1
smoothSolver:  Solving for U.airy, Initial residual = 0.256207, Final residual = 6.97286e-06, No Iterations 1
smoothSolver:  Solving for U.airz, Initial residual = 0.176674, Final residual = 4.51964e-06, No Iterations 1
GAMG:  Solving for p, Initial residual = 0.701268, Final residual = 0.00430451, No Iterations 2
time step continuity errors : sum local = 1.68711e-05, global = -7.6767e-09, cumulative = 2.34953e-05
GAMG:  Solving for p, Initial residual = 0.0111621, Final residual = 9.13371e-07, No Iterations 13
time step continuity errors : sum local = 3.14828e-09, global = -1.06917e-09, cumulative = 2.34943e-05
ExecutionTime = 2.8 s  ClockTime = 2 s

Courant Number mean: 0.0117381 max: 0.108782
Time = 0.0003

Evolving kinematicCloud

Solving3-D cloud kinematicCloud
    3 move-collide subCycles
Cloud: kinematicCloud
    Current number of parcels       = 24750
    Current mass in system          = 0.511478
    Linear momentum                 = (-0.000224948 -2.00126e-05 -0.000510741)
   |Linear momentum|                = 0.000558443
    Linear kinetic energy           = 1.62567e-06
    Average particle per parcel     = 1
    Injector model1:
      - parcels added               = 24750
      - mass introduced             = 0.511478
    Surface film:
      - parcels absorbed            = 0
      - mass absorbed               = 0
      - parcels ejected             = 0
    Parcel fate: system (number, mass)
      - escape                      = 0, 0
    Parcel fate: patch (top|bottom|walls|frontAndBack) (number, mass)
      - escape                      = 0, 0
      - stick                       = 0, 0
    Rotational kinetic energy       = 0

PIMPLE: iteration 1
smoothSolver:  Solving for U.airx, Initial residual = 0.0621167, Final residual = 2.29298e-06, No Iterations 1
smoothSolver:  Solving for U.airy, Initial residual = 0.234056, Final residual = 4.92794e-06, No Iterations 1
smoothSolver:  Solving for U.airz, Initial residual = 0.146989, Final residual = 3.1784e-06, No Iterations 1
GAMG:  Solving for p, Initial residual = 0.675527, Final residual = 0.00455415, No Iterations 2
time step continuity errors : sum local = 1.51584e-05, global = 3.30681e-09, cumulative = 2.34976e-05
GAMG:  Solving for p, Initial residual = 0.0100971, Final residual = 9.92739e-07, No Iterations 15
time step continuity errors : sum local = 3.17319e-09, global = 9.11684e-10, cumulative = 2.34985e-05
ExecutionTime = 3.08 s  ClockTime = 3 s

Courant Number mean: 0.0117474 max: 0.118363
Time = 0.00032

Evolving kinematicCloud

Solving3-D cloud kinematicCloud
    3 move-collide subCycles
Cloud: kinematicCloud
    Current number of parcels       = 24750
    Current mass in system          = 0.511478
    Linear momentum                 = (-0.000225054 -2.00632e-05 -0.000572567)
   |Linear momentum|                = 0.000615536
    Linear kinetic energy           = 1.7366e-06
    Average particle per parcel     = 1
    Injector model1:
      - parcels added               = 24750
      - mass introduced             = 0.511478
    Surface film:
      - parcels absorbed            = 0
      - mass absorbed               = 0
      - parcels ejected             = 0
    Parcel fate: system (number, mass)
      - escape                      = 0, 0
    Parcel fate: patch (top|bottom|walls|frontAndBack) (number, mass)
      - escape                      = 0, 0
      - stick                       = 0, 0
    Rotational kinetic energy       = 0

PIMPLE: iteration 1
smoothSolver:  Solving for U.airx, Initial residual = 0.0610703, Final residual = 2.4205e-06, No Iterations 1
smoothSolver:  Solving for U.airy, Initial residual = 0.223076, Final residual = 5.10586e-06, No Iterations 1
smoothSolver:  Solving for U.airz, Initial residual = 0.138558, Final residual = 2.3982e-06, No Iterations 1
GAMG:  Solving for p, Initial residual = 0.68667, Final residual = 0.00473681, No Iterations 2
time step continuity errors : sum local = 1.44215e-05, global = 1.96064e-08, cumulative = 2.35181e-05
GAMG:  Solving for p, Initial residual = 0.0108806, Final residual = 9.19724e-07, No Iterations 19
time step continuity errors : sum local = 2.66837e-09, global = 7.78425e-10, cumulative = 2.35189e-05
ExecutionTime = 3.35 s  ClockTime = 3 s

Courant Number mean: 0.0115606 max: 0.0760377
Time = 0.00034

Evolving kinematicCloud

Solving3-D cloud kinematicCloud
    3 move-collide subCycles
Cloud: kinematicCloud
    Current number of parcels       = 24750
    Current mass in system          = 0.511478
    Linear momentum                 = (-0.000225078 -2.01342e-05 -0.000634661)
   |Linear momentum|                = 0.000673692
    Linear kinetic energy           = 1.85382e-06
    Average particle per parcel     = 1
    Injector model1:
      - parcels added               = 24750
      - mass introduced             = 0.511478
    Surface film:
      - parcels absorbed            = 0
      - mass absorbed               = 0
      - parcels ejected             = 0
    Parcel fate: system (number, mass)
      - escape                      = 0, 0
    Parcel fate: patch (top|bottom|walls|frontAndBack) (number, mass)
      - escape                      = 0, 0
      - stick                       = 0, 0
    Rotational kinetic energy       = 0

PIMPLE: iteration 1
smoothSolver:  Solving for U.airx, Initial residual = 0.0604301, Final residual = 2.52481e-06, No Iterations 1
smoothSolver:  Solving for U.airy, Initial residual = 0.226415, Final residual = 6.0662e-06, No Iterations 1
smoothSolver:  Solving for U.airz, Initial residual = 0.137299, Final residual = 2.4922e-06, No Iterations 1
GAMG:  Solving for p, Initial residual = 0.690306, Final residual = 0.00526994, No Iterations 2
time step continuity errors : sum local = 1.38794e-05, global = -2.56017e-08, cumulative = 2.34933e-05
GAMG:  Solving for p, Initial residual = 0.0126299, Final residual = 9.97583e-07, No Iterations 18
time step continuity errors : sum local = 2.38745e-09, global = -8.05486e-10, cumulative = 2.34925e-05
ExecutionTime = 3.61 s  ClockTime = 3 s

Courant Number mean: 0.0113074 max: 0.111274
Time = 0.00036

Evolving kinematicCloud

Solving3-D cloud kinematicCloud
    3 move-collide subCycles
Cloud: kinematicCloud
    Current number of parcels       = 24750
    Current mass in system          = 0.511478
    Linear momentum                 = (-0.000225439 -2.01882e-05 -0.000697334)
   |Linear momentum|                = 0.000733147
    Linear kinetic energy           = 1.97684e-06
    Average particle per parcel     = 1
    Injector model1:
      - parcels added               = 24750
      - mass introduced             = 0.511478
    Surface film:
      - parcels absorbed            = 0
      - mass absorbed               = 0
      - parcels ejected             = 0
    Parcel fate: system (number, mass)
      - escape                      = 0, 0
    Parcel fate: patch (top|bottom|walls|frontAndBack) (number, mass)
      - escape                      = 0, 0
      - stick                       = 0, 0
    Rotational kinetic energy       = 0

PIMPLE: iteration 1
smoothSolver:  Solving for U.airx, Initial residual = 0.0560981, Final residual = 2.95001e-06, No Iterations 1
smoothSolver:  Solving for U.airy, Initial residual = 0.220693, Final residual = 8.98482e-06, No Iterations 1
smoothSolver:  Solving for U.airz, Initial residual = 0.117088, Final residual = 3.6835e-06, No Iterations 1
GAMG:  Solving for p, Initial residual = 0.676485, Final residual = 0.00551276, No Iterations 2
time step continuity errors : sum local = 1.2222e-05, global = 1.26035e-08, cumulative = 2.35051e-05
GAMG:  Solving for p, Initial residual = 0.0129686, Final residual = 9.87178e-07, No Iterations 15
time step continuity errors : sum local = 1.98395e-09, global = 5.8414e-10, cumulative = 2.35057e-05
ExecutionTime = 3.87 s  ClockTime = 3 s

Courant Number mean: 0.0111693 max: 0.0464091
Time = 0.00038

Evolving kinematicCloud

Solving3-D cloud kinematicCloud
    3 move-collide subCycles
Cloud: kinematicCloud
    Current number of parcels       = 24750
    Current mass in system          = 0.511478
    Linear momentum                 = (-0.000225278 -2.02587e-05 -0.000760155)
   |Linear momentum|                = 0.000793093
    Linear kinetic energy           = 2.10593e-06
    Average particle per parcel     = 1
    Injector model1:
      - parcels added               = 24750
      - mass introduced             = 0.511478
    Surface film:
      - parcels absorbed            = 0
      - mass absorbed               = 0
      - parcels ejected             = 0
    Parcel fate: system (number, mass)
      - escape                      = 0, 0
    Parcel fate: patch (top|bottom|walls|frontAndBack) (number, mass)
      - escape                      = 0, 0
      - stick                       = 0, 0
    Rotational kinetic energy       = 0

PIMPLE: iteration 1
smoothSolver:  Solving for U.airx, Initial residual = 0.047763, Final residual = 1.47053e-06, No Iterations 1
smoothSolver:  Solving for U.airy, Initial residual = 0.187308, Final residual = 2.96567e-06, No Iterations 1
smoothSolver:  Solving for U.airz, Initial residual = 0.0998105, Final residual = 1.47481e-06, No Iterations 1
GAMG:  Solving for p, Initial residual = 0.626364, Final residual = 0.00530042, No Iterations 2
time step continuity errors : sum local = 9.99043e-06, global = -5.27227e-09, cumulative = 2.35004e-05
GAMG:  Solving for p, Initial residual = 0.0105667, Final residual = 8.73232e-07, No Iterations 16
time step continuity errors : sum local = 1.54413e-09, global = 4.42152e-10, cumulative = 2.35008e-05
ExecutionTime = 4.14 s  ClockTime = 4 s

Courant Number mean: 0.0110056 max: 0.0744198
Time = 0.0004

Evolving kinematicCloud

Solving3-D cloud kinematicCloud
    3 move-collide subCycles
Cloud: kinematicCloud
    Current number of parcels       = 24750
    Current mass in system          = 0.511478
    Linear momentum                 = (-0.000225231 -2.03103e-05 -0.00082329)
   |Linear momentum|                = 0.000853785
    Linear kinetic energy           = 2.24093e-06
    Average particle per parcel     = 1
    Injector model1:
      - parcels added               = 24750
      - mass introduced             = 0.511478
    Surface film:
      - parcels absorbed            = 0
      - mass absorbed               = 0
      - parcels ejected             = 0
    Parcel fate: system (number, mass)
      - escape                      = 0, 0
    Parcel fate: patch (top|bottom|walls|frontAndBack) (number, mass)
      - escape                      = 0, 0
      - stick                       = 0, 0
    Rotational kinetic energy       = 0

PIMPLE: iteration 1
smoothSolver:  Solving for U.airx, Initial residual = 0.040862, Final residual = 1.39729e-06, No Iterations 1
smoothSolver:  Solving for U.airy, Initial residual = 0.167, Final residual = 3.63137e-06, No Iterations 1
smoothSolver:  Solving for U.airz, Initial residual = 0.0870845, Final residual = 1.46056e-06, No Iterations 1
GAMG:  Solving for p, Initial residual = 0.638986, Final residual = 0.00548926, No Iterations 2
time step continuity errors : sum local = 9.21182e-06, global = -6.92794e-09, cumulative = 2.34939e-05
GAMG:  Solving for p, Initial residual = 0.0107711, Final residual = 9.2088e-07, No Iterations 15
time step continuity errors : sum local = 1.47224e-09, global = 4.236e-10, cumulative = 2.34943e-05
ExecutionTime = 4.4 s  ClockTime = 4 s

Courant Number mean: 0.011047 max: 0.075499
Time = 0.00042

Evolving kinematicCloud

Solving3-D cloud kinematicCloud
    3 move-collide subCycles
Cloud: kinematicCloud
    Current number of parcels       = 24750
    Current mass in system          = 0.511478
    Linear momentum                 = (-0.000225897 -2.03641e-05 -0.000886546)
   |Linear momentum|                = 0.0009151
    Linear kinetic energy           = 2.38378e-06
    Average particle per parcel     = 1
    Injector model1:
      - parcels added               = 24750
      - mass introduced             = 0.511478
    Surface film:
      - parcels absorbed            = 0
      - mass absorbed               = 0
      - parcels ejected             = 0
    Parcel fate: system (number, mass)
      - escape                      = 0, 0
    Parcel fate: patch (top|bottom|walls|frontAndBack) (number, mass)
      - escape                      = 0, 0
      - stick                       = 0, 0
    Rotational kinetic energy       = 0

PIMPLE: iteration 1
smoothSolver:  Solving for U.airx, Initial residual = 0.0403439, Final residual = 1.39673e-06, No Iterations 1
smoothSolver:  Solving for U.airy, Initial residual = 0.152749, Final residual = 2.87894e-06, No Iterations 1
smoothSolver:  Solving for U.airz, Initial residual = 0.0786986, Final residual = 1.34847e-06, No Iterations 1
GAMG:  Solving for p, Initial residual = 0.678253, Final residual = 0.00614316, No Iterations 2
time step continuity errors : sum local = 1.08263e-05, global = -6.79607e-11, cumulative = 2.34943e-05
GAMG:  Solving for p, Initial residual = 0.0103193, Final residual = 4.36187e-07, No Iterations 10
time step continuity errors : sum local = 8.40681e-10, global = -2.61545e-10, cumulative = 2.3494e-05
ExecutionTime = 4.68 s  ClockTime = 4 s

Courant Number mean: 0.0112145 max: 0.0737102
Time = 0.00044

Evolving kinematicCloud

Solving3-D cloud kinematicCloud
    3 move-collide subCycles
Cloud: kinematicCloud
    Current number of parcels       = 24750
    Current mass in system          = 0.511478
    Linear momentum                 = (-0.000226739 -2.04191e-05 -0.000949755)
   |Linear momentum|                = 0.000976659
    Linear kinetic energy           = 2.53304e-06
    Average particle per parcel     = 1
    Injector model1:
      - parcels added               = 24750
      - mass introduced             = 0.511478
    Surface film:
      - parcels absorbed            = 0
      - mass absorbed               = 0
      - parcels ejected             = 0
    Parcel fate: system (number, mass)
      - escape                      = 0, 0
    Parcel fate: patch (top|bottom|walls|frontAndBack) (number, mass)
      - escape                      = 0, 0
      - stick                       = 0, 0
    Rotational kinetic energy       = 0

PIMPLE: iteration 1
smoothSolver:  Solving for U.airx, Initial residual = 0.0501044, Final residual = 2.13807e-06, No Iterations 1
smoothSolver:  Solving for U.airy, Initial residual = 0.182385, Final residual = 4.82556e-06, No Iterations 1
smoothSolver:  Solving for U.airz, Initial residual = 0.0977372, Final residual = 1.91224e-06, No Iterations 1
GAMG:  Solving for p, Initial residual = 0.693355, Final residual = 0.00557589, No Iterations 2
time step continuity errors : sum local = 1.0464e-05, global = 6.73464e-09, cumulative = 2.35007e-05
GAMG:  Solving for p, Initial residual = 0.0129445, Final residual = 6.63176e-07, No Iterations 17
time step continuity errors : sum local = 1.2073e-09, global = 4.23714e-10, cumulative = 2.35012e-05
ExecutionTime = 4.96 s  ClockTime = 5 s

Courant Number mean: 0.0109797 max: 0.0836158
Time = 0.00046

Evolving kinematicCloud

Solving3-D cloud kinematicCloud
    3 move-collide subCycles
Cloud: kinematicCloud
    Current number of parcels       = 24750
    Current mass in system          = 0.511478
    Linear momentum                 = (-0.000226951 -2.05325e-05 -0.00101343)
   |Linear momentum|                = 0.00103873
    Linear kinetic energy           = 2.68875e-06
    Average particle per parcel     = 1
    Injector model1:
      - parcels added               = 24750
      - mass introduced             = 0.511478
    Surface film:
      - parcels absorbed            = 0
      - mass absorbed               = 0
      - parcels ejected             = 0
    Parcel fate: system (number, mass)
      - escape                      = 0, 0
    Parcel fate: patch (top|bottom|walls|frontAndBack) (number, mass)
      - escape                      = 0, 0
      - stick                       = 0, 0
    Rotational kinetic energy       = 0

PIMPLE: iteration 1
smoothSolver:  Solving for U.airx, Initial residual = 0.0494212, Final residual = 1.82916e-06, No Iterations 1
smoothSolver:  Solving for U.airy, Initial residual = 0.18648, Final residual = 3.30262e-06, No Iterations 1
smoothSolver:  Solving for U.airz, Initial residual = 0.0913113, Final residual = 2.23334e-06, No Iterations 1
GAMG:  Solving for p, Initial residual = 0.684702, Final residual = 0.00537047, No Iterations 2
time step continuity errors : sum local = 9.89583e-06, global = -2.62156e-09, cumulative = 2.34985e-05
GAMG:  Solving for p, Initial residual = 0.0116041, Final residual = 6.84601e-07, No Iterations 16
time step continuity errors : sum local = 1.28554e-09, global = -4.41035e-10, cumulative = 2.34981e-05
ExecutionTime = 5.22 s  ClockTime = 5 s

Courant Number mean: 0.011165 max: 0.0892028
Time = 0.00048

Evolving kinematicCloud

Solving3-D cloud kinematicCloud
    3 move-collide subCycles
Cloud: kinematicCloud
    Current number of parcels       = 24750
    Current mass in system          = 0.511478
    Linear momentum                 = (-0.000226705 -2.05977e-05 -0.00107706)
   |Linear momentum|                = 0.00110086
    Linear kinetic energy           = 2.85166e-06
    Average particle per parcel     = 1
    Injector model1:
      - parcels added               = 24750
      - mass introduced             = 0.511478
    Surface film:
      - parcels absorbed            = 0
      - mass absorbed               = 0
      - parcels ejected             = 0
    Parcel fate: system (number, mass)
      - escape                      = 0, 0
    Parcel fate: patch (top|bottom|walls|frontAndBack) (number, mass)
      - escape                      = 0, 0
      - stick                       = 0, 0
    Rotational kinetic energy       = 0

PIMPLE: iteration 1
smoothSolver:  Solving for U.airx, Initial residual = 0.0526357, Final residual = 2.82807e-06, No Iterations 1
smoothSolver:  Solving for U.airy, Initial residual = 0.191077, Final residual = 3.95011e-06, No Iterations 1
smoothSolver:  Solving for U.airz, Initial residual = 0.0939263, Final residual = 2.60665e-06, No Iterations 1
GAMG:  Solving for p, Initial residual = 0.710347, Final residual = 0.00558638, No Iterations 2
time step continuity errors : sum local = 1.06058e-05, global = -7.34616e-09, cumulative = 2.34907e-05
GAMG:  Solving for p, Initial residual = 0.0124315, Final residual = 8.11244e-07, No Iterations 18
time step continuity errors : sum local = 1.54785e-09, global = 4.46503e-10, cumulative = 2.34912e-05
ExecutionTime = 5.48 s  ClockTime = 5 s

Courant Number mean: 0.0109177 max: 0.0454696
Time = 0.0005

Evolving kinematicCloud

Solving3-D cloud kinematicCloud
    3 move-collide subCycles
Cloud: kinematicCloud
    Current number of parcels       = 24750
    Current mass in system          = 0.511478
    Linear momentum                 = (-0.000226347 -2.07105e-05 -0.00114124)
   |Linear momentum|                = 0.00116365
    Linear kinetic energy           = 3.02205e-06
    Average particle per parcel     = 1
    Injector model1:
      - parcels added               = 24750
      - mass introduced             = 0.511478
    Surface film:
      - parcels absorbed            = 0
      - mass absorbed               = 0
      - parcels ejected             = 0
    Parcel fate: system (number, mass)
      - escape                      = 0, 0
    Parcel fate: patch (top|bottom|walls|frontAndBack) (number, mass)
      - escape                      = 0, 0
      - stick                       = 0, 0
    Rotational kinetic energy       = 0

PIMPLE: iteration 1
smoothSolver:  Solving for U.airx, Initial residual = 0.0507361, Final residual = 1.5048e-06, No Iterations 1
smoothSolver:  Solving for U.airy, Initial residual = 0.205025, Final residual = 3.33906e-06, No Iterations 1
smoothSolver:  Solving for U.airz, Initial residual = 0.095644, Final residual = 1.39861e-06, No Iterations 1
GAMG:  Solving for p, Initial residual = 0.695944, Final residual = 0.0057236, No Iterations 2
time step continuity errors : sum local = 1.08027e-05, global = 4.04054e-09, cumulative = 2.34952e-05
GAMG:  Solving for p, Initial residual = 0.0110487, Final residual = 7.08596e-07, No Iterations 16
time step continuity errors : sum local = 1.32859e-09, global = -4.44413e-10, cumulative = 2.34948e-05
ExecutionTime = 5.75 s  ClockTime = 5 s

Courant Number mean: 0.0110697 max: 0.0744574
Time = 0.00052

Evolving kinematicCloud

Solving3-D cloud kinematicCloud
    3 move-collide subCycles
Cloud: kinematicCloud
    Current number of parcels       = 24750
    Current mass in system          = 0.511478
    Linear momentum                 = (-0.000226156 -2.08178e-05 -0.00120543)
   |Linear momentum|                = 0.00122664
    Linear kinetic energy           = 3.19975e-06
    Average particle per parcel     = 1
    Injector model1:
      - parcels added               = 24750
      - mass introduced             = 0.511478
    Surface film:
      - parcels absorbed            = 0
      - mass absorbed               = 0
      - parcels ejected             = 0
    Parcel fate: system (number, mass)
      - escape                      = 0, 0
    Parcel fate: patch (top|bottom|walls|frontAndBack) (number, mass)
      - escape                      = 0, 0
      - stick                       = 0, 0
    Rotational kinetic energy       = 0

PIMPLE: iteration 1
smoothSolver:  Solving for U.airx, Initial residual = 0.052947, Final residual = 2.61886e-06, No Iterations 1
smoothSolver:  Solving for U.airy, Initial residual = 0.200394, Final residual = 4.93177e-06, No Iterations 1
smoothSolver:  Solving for U.airz, Initial residual = 0.0942169, Final residual = 2.01927e-06, No Iterations 1
GAMG:  Solving for p, Initial residual = 0.703683, Final residual = 0.00604375, No Iterations 2
time step continuity errors : sum local = 1.09996e-05, global = 4.56171e-09, cumulative = 2.34994e-05
GAMG:  Solving for p, Initial residual = 0.0137717, Final residual = 9.71143e-07, No Iterations 9
time step continuity errors : sum local = 1.69584e-09, global = 7.10867e-10, cumulative = 2.35001e-05
ExecutionTime = 6.03 s  ClockTime = 6 s

Courant Number mean: 0.0108094 max: 0.0744796
Time = 0.00054

Evolving kinematicCloud

Solving3-D cloud kinematicCloud
    3 move-collide subCycles
Cloud: kinematicCloud
    Current number of parcels       = 24750
    Current mass in system          = 0.511478
    Linear momentum                 = (-0.000225767 -2.08997e-05 -0.00126995)
   |Linear momentum|                = 0.00129004
    Linear kinetic energy           = 3.38548e-06
    Average particle per parcel     = 1
    Injector model1:
      - parcels added               = 24750
      - mass introduced             = 0.511478
    Surface film:
      - parcels absorbed            = 0
      - mass absorbed               = 0
      - parcels ejected             = 0
    Parcel fate: system (number, mass)
      - escape                      = 0, 0
    Parcel fate: patch (top|bottom|walls|frontAndBack) (number, mass)
      - escape                      = 0, 0
      - stick                       = 0, 0
    Rotational kinetic energy       = 0

PIMPLE: iteration 1
smoothSolver:  Solving for U.airx, Initial residual = 0.0517451, Final residual = 2.41905e-06, No Iterations 1
smoothSolver:  Solving for U.airy, Initial residual = 0.202875, Final residual = 5.65628e-06, No Iterations 1
smoothSolver:  Solving for U.airz, Initial residual = 0.0867573, Final residual = 1.60367e-06, No Iterations 1
GAMG:  Solving for p, Initial residual = 0.669045, Final residual = 0.00590623, No Iterations 2
time step continuity errors : sum local = 9.8729e-06, global = -1.81483e-08, cumulative = 2.34819e-05
GAMG:  Solving for p, Initial residual = 0.0121828, Final residual = 8.61206e-07, No Iterations 14
time step continuity errors : sum local = 1.37552e-09, global = -3.88822e-10, cumulative = 2.34815e-05
ExecutionTime = 6.32 s  ClockTime = 6 s

Courant Number mean: 0.0109321 max: 0.0787033
Time = 0.00056

Evolving kinematicCloud

Solving3-D cloud kinematicCloud
    3 move-collide subCycles
Cloud: kinematicCloud
    Current number of parcels       = 24750
    Current mass in system          = 0.511478
    Linear momentum                 = (-0.000225988 -2.09664e-05 -0.00133438)
   |Linear momentum|                = 0.00135355
    Linear kinetic energy           = 3.57889e-06
    Average particle per parcel     = 1
    Injector model1:
      - parcels added               = 24750
      - mass introduced             = 0.511478
    Surface film:
      - parcels absorbed            = 0
      - mass absorbed               = 0
      - parcels ejected             = 0
    Parcel fate: system (number, mass)
      - escape                      = 0, 0
    Parcel fate: patch (top|bottom|walls|frontAndBack) (number, mass)
      - escape                      = 0, 0
      - stick                       = 0, 0
    Rotational kinetic energy       = 0

PIMPLE: iteration 1
smoothSolver:  Solving for U.airx, Initial residual = 0.0487128, Final residual = 2.08899e-06, No Iterations 1
smoothSolver:  Solving for U.airy, Initial residual = 0.17727, Final residual = 4.86813e-06, No Iterations 1
smoothSolver:  Solving for U.airz, Initial residual = 0.0786186, Final residual = 1.64435e-06, No Iterations 1
GAMG:  Solving for p, Initial residual = 0.675479, Final residual = 0.00628383, No Iterations 2
time step continuity errors : sum local = 1.06249e-05, global = 7.32491e-09, cumulative = 2.34889e-05
GAMG:  Solving for p, Initial residual = 0.0122969, Final residual = 9.39248e-07, No Iterations 16
time step continuity errors : sum local = 1.66246e-09, global = 4.86352e-10, cumulative = 2.34893e-05
ExecutionTime = 6.59 s  ClockTime = 6 s

Courant Number mean: 0.0109252 max: 0.0836333
Time = 0.00058

Evolving kinematicCloud

Solving3-D cloud kinematicCloud
    3 move-collide subCycles
Cloud: kinematicCloud
    Current number of parcels       = 24750
    Current mass in system          = 0.511478
    Linear momentum                 = (-0.000225695 -2.10126e-05 -0.00139894)
   |Linear momentum|                = 0.00141719
    Linear kinetic energy           = 3.77945e-06
    Average particle per parcel     = 1
    Injector model1:
      - parcels added               = 24750
      - mass introduced             = 0.511478
    Surface film:
      - parcels absorbed            = 0
      - mass absorbed               = 0
      - parcels ejected             = 0
    Parcel fate: system (number, mass)
      - escape                      = 0, 0
    Parcel fate: patch (top|bottom|walls|frontAndBack) (number, mass)
      - escape                      = 0, 0
      - stick                       = 0, 0
    Rotational kinetic energy       = 0

PIMPLE: iteration 1
smoothSolver:  Solving for U.airx, Initial residual = 0.0536945, Final residual = 3.27875e-06, No Iterations 1
smoothSolver:  Solving for U.airy, Initial residual = 0.197219, Final residual = 7.1767e-06, No Iterations 1
smoothSolver:  Solving for U.airz, Initial residual = 0.0870075, Final residual = 2.26547e-06, No Iterations 1
GAMG:  Solving for p, Initial residual = 0.683629, Final residual = 0.00583743, No Iterations 2
time step continuity errors : sum local = 1.03009e-05, global = 3.52764e-10, cumulative = 2.34897e-05
GAMG:  Solving for p, Initial residual = 0.0125482, Final residual = 9.45423e-07, No Iterations 10
time step continuity errors : sum local = 1.6702e-09, global = -5.72731e-10, cumulative = 2.34891e-05
ExecutionTime = 6.85 s  ClockTime = 6 s

Courant Number mean: 0.0107911 max: 0.0464344
Time = 0.0006

Evolving kinematicCloud

Solving3-D cloud kinematicCloud
    3 move-collide subCycles
Cloud: kinematicCloud
    Current number of parcels       = 24750
    Current mass in system          = 0.511478
    Linear momentum                 = (-0.000225497 -2.10882e-05 -0.00146392)
   |Linear momentum|                = 0.00148134
    Linear kinetic energy           = 3.98851e-06
    Average particle per parcel     = 1
    Injector model1:
      - parcels added               = 24750
      - mass introduced             = 0.511478
    Surface film:
      - parcels absorbed            = 0
      - mass absorbed               = 0
      - parcels ejected             = 0
    Parcel fate: system (number, mass)
      - escape                      = 0, 0
    Parcel fate: patch (top|bottom|walls|frontAndBack) (number, mass)
      - escape                      = 0, 0
      - stick                       = 0, 0
    Rotational kinetic energy       = 0

PIMPLE: iteration 1
smoothSolver:  Solving for U.airx, Initial residual = 0.0568046, Final residual = 1.68482e-06, No Iterations 1
smoothSolver:  Solving for U.airy, Initial residual = 0.204012, Final residual = 3.13687e-06, No Iterations 1
smoothSolver:  Solving for U.airz, Initial residual = 0.088828, Final residual = 1.36021e-06, No Iterations 1
GAMG:  Solving for p, Initial residual = 0.655589, Final residual = 0.00522347, No Iterations 2
time step continuity errors : sum local = 9.59902e-06, global = 4.12026e-09, cumulative = 2.34932e-05
GAMG:  Solving for p, Initial residual = 0.00996148, Final residual = 8.63015e-07, No Iterations 13
time step continuity errors : sum local = 1.64496e-09, global = 5.24748e-10, cumulative = 2.34938e-05
ExecutionTime = 7.12 s  ClockTime = 7 s

Courant Number mean: 0.011014 max: 0.0893796
Time = 0.00062

Evolving kinematicCloud

Solving3-D cloud kinematicCloud
    3 move-collide subCycles
Cloud: kinematicCloud
    Current number of parcels       = 24750
    Current mass in system          = 0.511478
    Linear momentum                 = (-0.00022528 -2.12484e-05 -0.00152869)
   |Linear momentum|                = 0.00154535
    Linear kinetic energy           = 4.20506e-06
    Average particle per parcel     = 1
    Injector model1:
      - parcels added               = 24750
      - mass introduced             = 0.511478
    Surface film:
      - parcels absorbed            = 0
      - mass absorbed               = 0
      - parcels ejected             = 0
    Parcel fate: system (number, mass)
      - escape                      = 0, 0
    Parcel fate: patch (top|bottom|walls|frontAndBack) (number, mass)
      - escape                      = 0, 0
      - stick                       = 0, 0
    Rotational kinetic energy       = 0

PIMPLE: iteration 1
smoothSolver:  Solving for U.airx, Initial residual = 0.0597919, Final residual = 2.95403e-06, No Iterations 1
smoothSolver:  Solving for U.airy, Initial residual = 0.20632, Final residual = 5.0914e-06, No Iterations 1
smoothSolver:  Solving for U.airz, Initial residual = 0.0854554, Final residual = 2.37913e-06, No Iterations 1
GAMG:  Solving for p, Initial residual = 0.73971, Final residual = 0.00583751, No Iterations 2
time step continuity errors : sum local = 1.1869e-05, global = -1.00884e-09, cumulative = 2.34928e-05
GAMG:  Solving for p, Initial residual = 0.0118461, Final residual = 8.47806e-07, No Iterations 9
time step continuity errors : sum local = 1.83599e-09, global = 1.46831e-10, cumulative = 2.34929e-05
ExecutionTime = 7.38 s  ClockTime = 7 s

Courant Number mean: 0.0109869 max: 0.0727408
Time = 0.00064

Evolving kinematicCloud

Solving3-D cloud kinematicCloud
    3 move-collide subCycles
Cloud: kinematicCloud
    Current number of parcels       = 24750
    Current mass in system          = 0.511478
    Linear momentum                 = (-0.000225479 -2.12842e-05 -0.00159382)
   |Linear momentum|                = 0.00160983
    Linear kinetic energy           = 4.43078e-06
    Average particle per parcel     = 1
    Injector model1:
      - parcels added               = 24750
      - mass introduced             = 0.511478
    Surface film:
      - parcels absorbed            = 0
      - mass absorbed               = 0
      - parcels ejected             = 0
    Parcel fate: system (number, mass)
      - escape                      = 0, 0
    Parcel fate: patch (top|bottom|walls|frontAndBack) (number, mass)
      - escape                      = 0, 0
      - stick                       = 0, 0
    Rotational kinetic energy       = 0

PIMPLE: iteration 1
smoothSolver:  Solving for U.airx, Initial residual = 0.0722152, Final residual = 2.66419e-06, No Iterations 1
smoothSolver:  Solving for U.airy, Initial residual = 0.249654, Final residual = 5.81079e-06, No Iterations 1
smoothSolver:  Solving for U.airz, Initial residual = 0.0996668, Final residual = 1.79451e-06, No Iterations 1
GAMG:  Solving for p, Initial residual = 0.693109, Final residual = 0.00557805, No Iterations 2
time step continuity errors : sum local = 1.15542e-05, global = -2.1203e-09, cumulative = 2.34908e-05
GAMG:  Solving for p, Initial residual = 0.0117182, Final residual = 9.32945e-07, No Iterations 14
time step continuity errors : sum local = 1.83884e-09, global = 5.70754e-10, cumulative = 2.34914e-05
ExecutionTime = 7.66 s  ClockTime = 7 s

Courant Number mean: 0.0108403 max: 0.0836751
Time = 0.00066

Evolving kinematicCloud

Solving3-D cloud kinematicCloud
    3 move-collide subCycles
Cloud: kinematicCloud
    Current number of parcels       = 24750
    Current mass in system          = 0.511478
    Linear momentum                 = (-0.000225793 -2.13462e-05 -0.00165918)
   |Linear momentum|                = 0.00167461
    Linear kinetic energy           = 4.66514e-06
    Average particle per parcel     = 1
    Injector model1:
      - parcels added               = 24750
      - mass introduced             = 0.511478
    Surface film:
      - parcels absorbed            = 0
      - mass absorbed               = 0
      - parcels ejected             = 0
    Parcel fate: system (number, mass)
      - escape                      = 0, 0
    Parcel fate: patch (top|bottom|walls|frontAndBack) (number, mass)
      - escape                      = 0, 0
      - stick                       = 0, 0
    Rotational kinetic energy       = 0

PIMPLE: iteration 1
smoothSolver:  Solving for U.airx, Initial residual = 0.0636657, Final residual = 2.51217e-06, No Iterations 1
smoothSolver:  Solving for U.airy, Initial residual = 0.220284, Final residual = 4.88146e-06, No Iterations 1
smoothSolver:  Solving for U.airz, Initial residual = 0.0883864, Final residual = 1.80874e-06, No Iterations 1
GAMG:  Solving for p, Initial residual = 0.693381, Final residual = 0.00544071, No Iterations 2
time step continuity errors : sum local = 1.04091e-05, global = 7.24395e-09, cumulative = 2.34986e-05
GAMG:  Solving for p, Initial residual = 0.0115522, Final residual = 9.77128e-07, No Iterations 16
time step continuity errors : sum local = 1.81571e-09, global = -5.98157e-10, cumulative = 2.3498e-05
ExecutionTime = 7.92 s  ClockTime = 8 s

Courant Number mean: 0.0109033 max: 0.0820842
Time = 0.00068

Evolving kinematicCloud

Solving3-D cloud kinematicCloud
    3 move-collide subCycles
Cloud: kinematicCloud
    Current number of parcels       = 24750
    Current mass in system          = 0.511478
    Linear momentum                 = (-0.000225549 -2.13994e-05 -0.00172456)
   |Linear momentum|                = 0.00173937
    Linear kinetic energy           = 4.90709e-06
    Average particle per parcel     = 1
    Injector model1:
      - parcels added               = 24750
      - mass introduced             = 0.511478
    Surface film:
      - parcels absorbed            = 0
      - mass absorbed               = 0
      - parcels ejected             = 0
    Parcel fate: system (number, mass)
      - escape                      = 0, 0
    Parcel fate: patch (top|bottom|walls|frontAndBack) (number, mass)
      - escape                      = 0, 0
      - stick                       = 0, 0
    Rotational kinetic energy       = 0

PIMPLE: iteration 1
smoothSolver:  Solving for U.airx, Initial residual = 0.0596604, Final residual = 2.99134e-06, No Iterations 1
smoothSolver:  Solving for U.airy, Initial residual = 0.218729, Final residual = 6.10154e-06, No Iterations 1
smoothSolver:  Solving for U.airz, Initial residual = 0.084283, Final residual = 1.61172e-06, No Iterations 1
GAMG:  Solving for p, Initial residual = 0.69707, Final residual = 0.00557711, No Iterations 2
time step continuity errors : sum local = 1.07699e-05, global = 3.23435e-09, cumulative = 2.35012e-05
GAMG:  Solving for p, Initial residual = 0.0116933, Final residual = 9.92179e-07, No Iterations 14
time step continuity errors : sum local = 1.97415e-09, global = 5.58931e-10, cumulative = 2.35018e-05
ExecutionTime = 8.2 s  ClockTime = 8 s

Courant Number mean: 0.0109088 max: 0.0894008
Time = 0.0007

Evolving kinematicCloud

Solving3-D cloud kinematicCloud
    3 move-collide subCycles
Cloud: kinematicCloud
    Current number of parcels       = 24750
    Current mass in system          = 0.511478
    Linear momentum                 = (-0.000225038 -2.14591e-05 -0.00179011)
   |Linear momentum|                = 0.00180432
    Linear kinetic energy           = 5.15769e-06
    Average particle per parcel     = 1
    Injector model1:
      - parcels added               = 24750
      - mass introduced             = 0.511478
    Surface film:
      - parcels absorbed            = 0
      - mass absorbed               = 0
      - parcels ejected             = 0
    Parcel fate: system (number, mass)
      - escape                      = 0, 0
    Parcel fate: patch (top|bottom|walls|frontAndBack) (number, mass)
      - escape                      = 0, 0
      - stick                       = 0, 0
    Rotational kinetic energy       = 0

PIMPLE: iteration 1
smoothSolver:  Solving for U.airx, Initial residual = 0.0694351, Final residual = 3.71721e-06, No Iterations 1
smoothSolver:  Solving for U.airy, Initial residual = 0.239916, Final residual = 6.75221e-06, No Iterations 1
smoothSolver:  Solving for U.airz, Initial residual = 0.0909545, Final residual = 2.30915e-06, No Iterations 1
GAMG:  Solving for p, Initial residual = 0.698401, Final residual = 0.00624838, No Iterations 2
time step continuity errors : sum local = 1.1676e-05, global = -5.947e-09, cumulative = 2.34958e-05
GAMG:  Solving for p, Initial residual = 0.0134331, Final residual = 8.01171e-07, No Iterations 9
time step continuity errors : sum local = 1.40021e-09, global = 4.41863e-10, cumulative = 2.34963e-05
ExecutionTime = 8.49 s  ClockTime = 8 s

Courant Number mean: 0.0107091 max: 0.0725849
Time = 0.00072

Evolving kinematicCloud

Solving3-D cloud kinematicCloud
    3 move-collide subCycles
Cloud: kinematicCloud
    Current number of parcels       = 24750
    Current mass in system          = 0.511478
    Linear momentum                 = (-0.000224252 -2.15777e-05 -0.00185588)
   |Linear momentum|                = 0.0018695
    Linear kinetic energy           = 5.41688e-06
    Average particle per parcel     = 1
    Injector model1:
      - parcels added               = 24750
      - mass introduced             = 0.511478
    Surface film:
      - parcels absorbed            = 0
      - mass absorbed               = 0
      - parcels ejected             = 0
    Parcel fate: system (number, mass)
      - escape                      = 0, 0
    Parcel fate: patch (top|bottom|walls|frontAndBack) (number, mass)
      - escape                      = 0, 0
      - stick                       = 0, 0
    Rotational kinetic energy       = 0

PIMPLE: iteration 1
smoothSolver:  Solving for U.airx, Initial residual = 0.0583907, Final residual = 2.18459e-06, No Iterations 1
smoothSolver:  Solving for U.airy, Initial residual = 0.216605, Final residual = 3.45309e-06, No Iterations 1
smoothSolver:  Solving for U.airz, Initial residual = 0.0781447, Final residual = 1.17839e-06, No Iterations 1
GAMG:  Solving for p, Initial residual = 0.662033, Final residual = 0.00575447, No Iterations 2
time step continuity errors : sum local = 9.80356e-06, global = -2.4972e-09, cumulative = 2.34938e-05
GAMG:  Solving for p, Initial residual = 0.0111849, Final residual = 8.11861e-07, No Iterations 17
time step continuity errors : sum local = 1.34214e-09, global = -3.9027e-10, cumulative = 2.34934e-05
ExecutionTime = 8.76 s  ClockTime = 8 s

Courant Number mean: 0.0107599 max: 0.0728069
Time = 0.00074

Evolving kinematicCloud

Solving3-D cloud kinematicCloud
    3 move-collide subCycles
Cloud: kinematicCloud
    Current number of parcels       = 24750
    Current mass in system          = 0.511478
    Linear momentum                 = (-0.000224969 -2.16254e-05 -0.00192166)
   |Linear momentum|                = 0.00193491
    Linear kinetic energy           = 5.68532e-06
    Average particle per parcel     = 1
    Injector model1:
      - parcels added               = 24750
      - mass introduced             = 0.511478
    Surface film:
      - parcels absorbed            = 0
      - mass absorbed               = 0
      - parcels ejected             = 0
    Parcel fate: system (number, mass)
      - escape                      = 0, 0
    Parcel fate: patch (top|bottom|walls|frontAndBack) (number, mass)
      - escape                      = 0, 0
      - stick                       = 0, 0
    Rotational kinetic energy       = 0

PIMPLE: iteration 1
smoothSolver:  Solving for U.airx, Initial residual = 0.0554078, Final residual = 2.43354e-06, No Iterations 1
smoothSolver:  Solving for U.airy, Initial residual = 0.194226, Final residual = 5.37938e-06, No Iterations 1
smoothSolver:  Solving for U.airz, Initial residual = 0.0717713, Final residual = 1.61934e-06, No Iterations 1
GAMG:  Solving for p, Initial residual = 0.64393, Final residual = 0.005889, No Iterations 2
time step continuity errors : sum local = 9.78066e-06, global = 6.59871e-09, cumulative = 2.35e-05
GAMG:  Solving for p, Initial residual = 0.0111486, Final residual = 7.67704e-07, No Iterations 18
time step continuity errors : sum local = 1.27358e-09, global = 4.29674e-10, cumulative = 2.35004e-05
ExecutionTime = 9.03 s  ClockTime = 9 s

Courant Number mean: 0.0107244 max: 0.0836686
Time = 0.00076

Evolving kinematicCloud

Solving3-D cloud kinematicCloud
    3 move-collide subCycles
Cloud: kinematicCloud
    Current number of parcels       = 24750
    Current mass in system          = 0.511478
    Linear momentum                 = (-0.000224753 -2.16673e-05 -0.00198747)
   |Linear momentum|                = 0.00200025
    Linear kinetic energy           = 5.96187e-06
    Average particle per parcel     = 1
    Injector model1:
      - parcels added               = 24750
      - mass introduced             = 0.511478
    Surface film:
      - parcels absorbed            = 0
      - mass absorbed               = 0
      - parcels ejected             = 0
    Parcel fate: system (number, mass)
      - escape                      = 0, 0
    Parcel fate: patch (top|bottom|walls|frontAndBack) (number, mass)
      - escape                      = 0, 0
      - stick                       = 0, 0
    Rotational kinetic energy       = 0

PIMPLE: iteration 1
smoothSolver:  Solving for U.airx, Initial residual = 0.0620181, Final residual = 2.43663e-06, No Iterations 1
smoothSolver:  Solving for U.airy, Initial residual = 0.199451, Final residual = 4.29221e-06, No Iterations 1
smoothSolver:  Solving for U.airz, Initial residual = 0.074725, Final residual = 1.48842e-06, No Iterations 1
GAMG:  Solving for p, Initial residual = 0.656834, Final residual = 0.00534433, No Iterations 2
time step continuity errors : sum local = 8.54892e-06, global = -1.90726e-09, cumulative = 2.34985e-05
GAMG:  Solving for p, Initial residual = 0.0111254, Final residual = 7.86557e-07, No Iterations 17
time step continuity errors : sum local = 1.22497e-09, global = -4.12565e-10, cumulative = 2.34981e-05
ExecutionTime = 9.31 s  ClockTime = 9 s

Courant Number mean: 0.010676 max: 0.0781495
Time = 0.00078

Evolving kinematicCloud

Solving3-D cloud kinematicCloud
    3 move-collide subCycles
Cloud: kinematicCloud
    Current number of parcels       = 24750
    Current mass in system          = 0.511478
    Linear momentum                 = (-0.000223886 -2.17764e-05 -0.00205337)
   |Linear momentum|                = 0.00206565
    Linear kinetic energy           = 6.24645e-06
    Average particle per parcel     = 1
    Injector model1:
      - parcels added               = 24750
      - mass introduced             = 0.511478
    Surface film:
      - parcels absorbed            = 0
      - mass absorbed               = 0
      - parcels ejected             = 0
    Parcel fate: system (number, mass)
      - escape                      = 0, 0
    Parcel fate: patch (top|bottom|walls|frontAndBack) (number, mass)
      - escape                      = 0, 0
      - stick                       = 0, 0
    Rotational kinetic energy       = 0

PIMPLE: iteration 1
smoothSolver:  Solving for U.airx, Initial residual = 0.0554931, Final residual = 3.70491e-06, No Iterations 1
smoothSolver:  Solving for U.airy, Initial residual = 0.187871, Final residual = 7.87909e-06, No Iterations 1
smoothSolver:  Solving for U.airz, Initial residual = 0.06725, Final residual = 1.33573e-06, No Iterations 1
GAMG:  Solving for p, Initial residual = 0.659664, Final residual = 0.00543016, No Iterations 2
time step continuity errors : sum local = 9.14821e-06, global = 3.39695e-09, cumulative = 2.35015e-05
GAMG:  Solving for p, Initial residual = 0.0107332, Final residual = 9.99992e-07, No Iterations 17
time step continuity errors : sum local = 1.78786e-09, global = 6.01837e-10, cumulative = 2.35021e-05
ExecutionTime = 9.58 s  ClockTime = 9 s

Courant Number mean: 0.0108148 max: 0.0894985
Time = 0.0008

Evolving kinematicCloud

Solving3-D cloud kinematicCloud
    3 move-collide subCycles
Cloud: kinematicCloud
    Current number of parcels       = 24750
    Current mass in system          = 0.511478
    Linear momentum                 = (-0.000223671 -2.18972e-05 -0.00211929)
   |Linear momentum|                = 0.00213117
    Linear kinetic energy           = 6.54032e-06
    Average particle per parcel     = 1
    Injector model1:
      - parcels added               = 24750
      - mass introduced             = 0.511478
    Surface film:
      - parcels absorbed            = 0
      - mass absorbed               = 0
      - parcels ejected             = 0
    Parcel fate: system (number, mass)
      - escape                      = 0, 0
    Parcel fate: patch (top|bottom|walls|frontAndBack) (number, mass)
      - escape                      = 0, 0
      - stick                       = 0, 0
    Rotational kinetic energy       = 0

PIMPLE: iteration 1
smoothSolver:  Solving for U.airx, Initial residual = 0.0633975, Final residual = 3.99939e-06, No Iterations 1
smoothSolver:  Solving for U.airy, Initial residual = 0.212466, Final residual = 7.23184e-06, No Iterations 1
smoothSolver:  Solving for U.airz, Initial residual = 0.0724737, Final residual = 2.36915e-06, No Iterations 1
GAMG:  Solving for p, Initial residual = 0.701175, Final residual = 0.00606766, No Iterations 2
time step continuity errors : sum local = 1.0835e-05, global = 3.4749e-09, cumulative = 2.35056e-05
GAMG:  Solving for p, Initial residual = 0.0122538, Final residual = 6.46893e-07, No Iterations 11
time step continuity errors : sum local = 1.16188e-09, global = -3.62377e-10, cumulative = 2.35052e-05
ExecutionTime = 9.86 s  ClockTime = 9 s

Courant Number mean: 0.010719 max: 0.072687
Time = 0.00082

Evolving kinematicCloud

Solving3-D cloud kinematicCloud
    3 move-collide subCycles
Cloud: kinematicCloud
    Current number of parcels       = 24750
    Current mass in system          = 0.511478
    Linear momentum                 = (-0.000223569 -2.19448e-05 -0.00218549)
   |Linear momentum|                = 0.00219701
    Linear kinetic energy           = 6.84341e-06
    Average particle per parcel     = 1
    Injector model1:
      - parcels added               = 24750
      - mass introduced             = 0.511478
    Surface film:
      - parcels absorbed            = 0
      - mass absorbed               = 0
      - parcels ejected             = 0
    Parcel fate: system (number, mass)
      - escape                      = 0, 0
    Parcel fate: patch (top|bottom|walls|frontAndBack) (number, mass)
      - escape                      = 0, 0
      - stick                       = 0, 0
    Rotational kinetic energy       = 0

PIMPLE: iteration 1
smoothSolver:  Solving for U.airx, Initial residual = 0.0660244, Final residual = 2.91562e-06, No Iterations 1
smoothSolver:  Solving for U.airy, Initial residual = 0.229631, Final residual = 6.00549e-06, No Iterations 1
smoothSolver:  Solving for U.airz, Initial residual = 0.0765651, Final residual = 1.66165e-06, No Iterations 1
GAMG:  Solving for p, Initial residual = 0.68989, Final residual = 0.00581639, No Iterations 2
time step continuity errors : sum local = 9.6756e-06, global = -7.62686e-10, cumulative = 2.35045e-05
GAMG:  Solving for p, Initial residual = 0.0127265, Final residual = 7.61733e-07, No Iterations 12
time step continuity errors : sum local = 1.16211e-09, global = -3.2993e-10, cumulative = 2.35041e-05
ExecutionTime = 10.14 s  ClockTime = 10 s

Courant Number mean: 0.0105437 max: 0.0838377
Time = 0.00084

Evolving kinematicCloud

Solving3-D cloud kinematicCloud
    3 move-collide subCycles
Cloud: kinematicCloud
    Current number of parcels       = 24750
    Current mass in system          = 0.511478
    Linear momentum                 = (-0.000223485 -2.19957e-05 -0.00225186)
   |Linear momentum|                = 0.00226302
    Linear kinetic energy           = 7.15566e-06
    Average particle per parcel     = 1
    Injector model1:
      - parcels added               = 24750
      - mass introduced             = 0.511478
    Surface film:
      - parcels absorbed            = 0
      - mass absorbed               = 0
      - parcels ejected             = 0
    Parcel fate: system (number, mass)
      - escape                      = 0, 0
    Parcel fate: patch (top|bottom|walls|frontAndBack) (number, mass)
      - escape                      = 0, 0
      - stick                       = 0, 0
    Rotational kinetic energy       = 0

PIMPLE: iteration 1
smoothSolver:  Solving for U.airx, Initial residual = 0.0553373, Final residual = 2.32796e-06, No Iterations 1
smoothSolver:  Solving for U.airy, Initial residual = 0.212701, Final residual = 5.1368e-06, No Iterations 1
smoothSolver:  Solving for U.airz, Initial residual = 0.0599392, Final residual = 1.22289e-06, No Iterations 1
GAMG:  Solving for p, Initial residual = 0.66102, Final residual = 0.00510624, No Iterations 2
time step continuity errors : sum local = 7.2349e-06, global = 3.4166e-09, cumulative = 2.35075e-05
GAMG:  Solving for p, Initial residual = 0.011483, Final residual = 9.75871e-07, No Iterations 13
time step continuity errors : sum local = 1.27257e-09, global = -3.95763e-10, cumulative = 2.35071e-05
ExecutionTime = 10.4 s  ClockTime = 10 s

Courant Number mean: 0.0105142 max: 0.0475872
Time = 0.00086

Evolving kinematicCloud

Solving3-D cloud kinematicCloud
    3 move-collide subCycles
Cloud: kinematicCloud
    Current number of parcels       = 24750
    Current mass in system          = 0.511478
    Linear momentum                 = (-0.000222744 -2.20774e-05 -0.0023182)
   |Linear momentum|                = 0.00232898
    Linear kinetic energy           = 7.476e-06
    Average particle per parcel     = 1
    Injector model1:
      - parcels added               = 24750
      - mass introduced             = 0.511478
    Surface film:
      - parcels absorbed            = 0
      - mass absorbed               = 0
      - parcels ejected             = 0
    Parcel fate: system (number, mass)
      - escape                      = 0, 0
    Parcel fate: patch (top|bottom|walls|frontAndBack) (number, mass)
      - escape                      = 0, 0
      - stick                       = 0, 0
    Rotational kinetic energy       = 0

PIMPLE: iteration 1
smoothSolver:  Solving for U.airx, Initial residual = 0.0455707, Final residual = 1.30238e-06, No Iterations 1
smoothSolver:  Solving for U.airy, Initial residual = 0.171167, Final residual = 2.44834e-06, No Iterations 1
smoothSolver:  Solving for U.airz, Initial residual = 0.050545, Final residual = 5.95972e-07, No Iterations 1
GAMG:  Solving for p, Initial residual = 0.608303, Final residual = 0.00551325, No Iterations 2
time step continuity errors : sum local = 6.87234e-06, global = -5.9278e-09, cumulative = 2.35012e-05
GAMG:  Solving for p, Initial residual = 0.0110027, Final residual = 9.18665e-07, No Iterations 10
time step continuity errors : sum local = 1.08594e-09, global = 1.90776e-10, cumulative = 2.35014e-05
ExecutionTime = 10.67 s  ClockTime = 10 s

Courant Number mean: 0.0104397 max: 0.0758747
[...]
Cloud: kinematicCloud
    Current number of parcels       = 24750
    Current mass in system          = 0.511478
    Linear momentum                 = (-0.000111845 -1.38136e-05 -0.108898)
   |Linear momentum|                = 0.108898
    Linear kinetic energy           = 0.0142523
    Average particle per parcel     = 1
    Injector model1:
      - parcels added               = 24750
      - mass introduced             = 0.511478
    Surface film:
      - parcels absorbed            = 0
      - mass absorbed               = 0
      - parcels ejected             = 0
    Parcel fate: system (number, mass)
      - escape                      = 0, 0
    Parcel fate: patch (top|bottom|walls|frontAndBack) (number, mass)
      - escape                      = 0, 0
      - stick                       = 0, 0
    Rotational kinetic energy       = 2.87201e-05

PIMPLE: iteration 1
smoothSolver:  Solving for U.airx, Initial residual = 0.100891, Final residual = 2.82851e-06, No Iterations 1
smoothSolver:  Solving for U.airy, Initial residual = 0.181351, Final residual = 3.30326e-06, No Iterations 1
smoothSolver:  Solving for U.airz, Initial residual = 0.039346, Final residual = 9.79491e-07, No Iterations 1
GAMG:  Solving for p, Initial residual = 0.700933, Final residual = 0.0059932, No Iterations 3
time step continuity errors : sum local = 1.32222e-05, global = 4.86001e-07, cumulative = 2.81901e-05
GAMG:  Solving for p, Initial residual = 0.0112013, Final residual = 9.97564e-07, No Iterations 24
time step continuity errors : sum local = 2.05092e-09, global = 6.92645e-10, cumulative = 2.81908e-05
ExecutionTime = 622.21 s  ClockTime = 622 s

Courant Number mean: 0.011435 max: 0.0484444
Time = 0.03642

Evolving kinematicCloud

Solving3-D cloud kinematicCloud
    4 move-collide subCycles
Cloud: kinematicCloud
    Current number of parcels       = 24750
    Current mass in system          = 0.511478
    Linear momentum                 = (-0.000111779 -1.34542e-05 -0.108959)
   |Linear momentum|                = 0.108959
    Linear kinetic energy           = 0.0142682
    Average particle per parcel     = 1
    Injector model1:
      - parcels added               = 24750
      - mass introduced             = 0.511478
    Surface film:
      - parcels absorbed            = 0
      - mass absorbed               = 0
      - parcels ejected             = 0
    Parcel fate: system (number, mass)
      - escape                      = 0, 0
    Parcel fate: patch (top|bottom|walls|frontAndBack) (number, mass)
      - escape                      = 0, 0
      - stick                       = 0, 0
    Rotational kinetic energy       = 2.88148e-05

PIMPLE: iteration 1
smoothSolver:  Solving for U.airx, Initial residual = 0.0983559, Final residual = 2.26941e-06, No Iterations 1
smoothSolver:  Solving for U.airy, Initial residual = 0.166406, Final residual = 2.47801e-06, No Iterations 1
smoothSolver:  Solving for U.airz, Initial residual = 0.0347047, Final residual = 7.38677e-07, No Iterations 1
GAMG:  Solving for p, Initial residual = 0.747804, Final residual = 0.00660126, No Iterations 3
time step continuity errors : sum local = 1.09561e-05, global = -2.44188e-07, cumulative = 2.79466e-05
GAMG:  Solving for p, Initial residual = 0.0127106, Final residual = 7.5022e-07, No Iterations 24
time step continuity errors : sum local = 1.0885e-09, global = -3.67752e-10, cumulative = 2.79462e-05
ExecutionTime = 622.62 s  ClockTime = 622 s

Courant Number mean: 0.0112823 max: 0.0558989
Time = 0.03644

Evolving kinematicCloud

Solving3-D cloud kinematicCloud
    4 move-collide subCycles
Cloud: kinematicCloud
    Current number of parcels       = 24750
    Current mass in system          = 0.511478
    Linear momentum                 = (-0.000111847 -1.31006e-05 -0.10902)
   |Linear momentum|                = 0.10902
    Linear kinetic energy           = 0.0142831
    Average particle per parcel     = 1
    Injector model1:
      - parcels added               = 24750
      - mass introduced             = 0.511478
    Surface film:
      - parcels absorbed            = 0
      - mass absorbed               = 0
      - parcels ejected             = 0
    Parcel fate: system (number, mass)
      - escape                      = 0, 0
    Parcel fate: patch (top|bottom|walls|frontAndBack) (number, mass)
      - escape                      = 0, 0
      - stick                       = 0, 0
    Rotational kinetic energy       = 2.88911e-05

PIMPLE: iteration 1
smoothSolver:  Solving for U.airx, Initial residual = 0.0786411, Final residual = 1.94426e-06, No Iterations 1
smoothSolver:  Solving for U.airy, Initial residual = 0.137557, Final residual = 2.05694e-06, No Iterations 1
smoothSolver:  Solving for U.airz, Initial residual = 0.0276371, Final residual = 4.82026e-07, No Iterations 1
GAMG:  Solving for p, Initial residual = 0.701712, Final residual = 0.00468776, No Iterations 3
time step continuity errors : sum local = 7.9357e-06, global = -7.4586e-08, cumulative = 2.78716e-05
GAMG:  Solving for p, Initial residual = 0.0084085, Final residual = 8.76841e-07, No Iterations 24
time step continuity errors : sum local = 1.63429e-09, global = -5.51439e-10, cumulative = 2.78711e-05
ExecutionTime = 622.99 s  ClockTime = 623 s

Courant Number mean: 0.0115923 max: 0.0625748
Time = 0.03646

Evolving kinematicCloud

Solving3-D cloud kinematicCloud
    4 move-collide subCycles
Cloud: kinematicCloud
    Current number of parcels       = 24750
    Current mass in system          = 0.511478
    Linear momentum                 = (-0.000112012 -1.29128e-05 -0.109079)
   |Linear momentum|                = 0.109079
    Linear kinetic energy           = 0.0142981
    Average particle per parcel     = 1
    Injector model1:
      - parcels added               = 24750
      - mass introduced             = 0.511478
    Surface film:
      - parcels absorbed            = 0
      - mass absorbed               = 0
      - parcels ejected             = 0
    Parcel fate: system (number, mass)
      - escape                      = 0, 0
    Parcel fate: patch (top|bottom|walls|frontAndBack) (number, mass)
      - escape                      = 0, 0
      - stick                       = 0, 0
    Rotational kinetic energy       = 2.89491e-05

PIMPLE: iteration 1
smoothSolver:  Solving for U.airx, Initial residual = 0.0989562, Final residual = 3.38867e-06, No Iterations 1
smoothSolver:  Solving for U.airy, Initial residual = 0.156379, Final residual = 2.85621e-06, No Iterations 1
smoothSolver:  Solving for U.airz, Initial residual = 0.0311236, Final residual = 8.35372e-07, No Iterations 1
GAMG:  Solving for p, Initial residual = 0.711686, Final residual = 0.00481471, No Iterations 3
time step continuity errors : sum local = 9.9563e-06, global = -8.67946e-09, cumulative = 2.78624e-05
GAMG:  Solving for p, Initial residual = 0.00906677, Final residual = 7.93448e-07, No Iterations 19
time step continuity errors : sum local = 1.72213e-09, global = 5.76034e-10, cumulative = 2.7863e-05
ExecutionTime = 623.36 s  ClockTime = 623 s

Courant Number mean: 0.0116094 max: 0.0446817
Time = 0.03648

Evolving kinematicCloud

Solving3-D cloud kinematicCloud
    4 move-collide subCycles
Cloud: kinematicCloud
    Current number of parcels       = 24750
    Current mass in system          = 0.511478
    Linear momentum                 = (-0.000112157 -1.2923e-05 -0.109136)
   |Linear momentum|                = 0.109136
    Linear kinetic energy           = 0.0143135
    Average particle per parcel     = 1
    Injector model1:
      - parcels added               = 24750
      - mass introduced             = 0.511478
    Surface film:
      - parcels absorbed            = 0
      - mass absorbed               = 0
      - parcels ejected             = 0
    Parcel fate: system (number, mass)
      - escape                      = 0, 0
    Parcel fate: patch (top|bottom|walls|frontAndBack) (number, mass)
      - escape                      = 0, 0
      - stick                       = 0, 0
    Rotational kinetic energy       = 2.89945e-05

PIMPLE: iteration 1
smoothSolver:  Solving for U.airx, Initial residual = 0.100295, Final residual = 2.64058e-06, No Iterations 1
smoothSolver:  Solving for U.airy, Initial residual = 0.171947, Final residual = 2.46889e-06, No Iterations 1
smoothSolver:  Solving for U.airz, Initial residual = 0.034486, Final residual = 8.78467e-07, No Iterations 1
GAMG:  Solving for p, Initial residual = 0.723836, Final residual = 0.00597865, No Iterations 3
time step continuity errors : sum local = 1.26855e-05, global = 7.18632e-08, cumulative = 2.79348e-05
GAMG:  Solving for p, Initial residual = 0.0101883, Final residual = 9.629e-07, No Iterations 19
time step continuity errors : sum local = 2.01069e-09, global = 6.77433e-10, cumulative = 2.79355e-05
ExecutionTime = 623.73 s  ClockTime = 623 s

Courant Number mean: 0.0115606 max: 0.0579423
Time = 0.0365

Evolving kinematicCloud

Solving3-D cloud kinematicCloud
    4 move-collide subCycles
Cloud: kinematicCloud
    Current number of parcels       = 24750
    Current mass in system          = 0.511478
    Linear momentum                 = (-0.00010224 -1.24127e-05 -0.109193)
   |Linear momentum|                = 0.109193
    Linear kinetic energy           = 0.0143279
    Average particle per parcel     = 1
    Injector model1:
      - parcels added               = 24750
      - mass introduced             = 0.511478
    Surface film:
      - parcels absorbed            = 0
      - mass absorbed               = 0
      - parcels ejected             = 0
    Parcel fate: system (number, mass)
      - escape                      = 0, 0
    Parcel fate: patch (top|bottom|walls|frontAndBack) (number, mass)
      - escape                      = 0, 0
      - stick                       = 0, 0
    Rotational kinetic energy       = 2.90509e-05

PIMPLE: iteration 1
smoothSolver:  Solving for U.airx, Initial residual = 0.09848, Final residual = 2.71148e-06, No Iterations 1
smoothSolver:  Solving for U.airy, Initial residual = 0.167693, Final residual = 2.47248e-06, No Iterations 1
smoothSolver:  Solving for U.airz, Initial residual = 0.0369873, Final residual = 9.07604e-07, No Iterations 1
GAMG:  Solving for p, Initial residual = 0.740895, Final residual = 0.00507747, No Iterations 3
time step continuity errors : sum local = 1.1156e-05, global = -8.81934e-08, cumulative = 2.78473e-05
GAMG:  Solving for p, Initial residual = 0.0087461, Final residual = 9.63859e-07, No Iterations 20
time step continuity errors : sum local = 2.29077e-09, global = -7.71256e-10, cumulative = 2.78466e-05
ExecutionTime = 624.1 s  ClockTime = 624 s

Courant Number mean: 0.011752 max: 0.0525807
Time = 0.03652

Evolving kinematicCloud

Solving3-D cloud kinematicCloud
    4 move-collide subCycles
Cloud: kinematicCloud
    Current number of parcels       = 24750
    Current mass in system          = 0.511478
    Linear momentum                 = (-0.000102378 -1.21543e-05 -0.109247)
   |Linear momentum|                = 0.109247
    Linear kinetic energy           = 0.0143421
    Average particle per parcel     = 1
    Injector model1:
      - parcels added               = 24750
      - mass introduced             = 0.511478
    Surface film:
      - parcels absorbed            = 0
      - mass absorbed               = 0
      - parcels ejected             = 0
    Parcel fate: system (number, mass)
      - escape                      = 0, 0
    Parcel fate: patch (top|bottom|walls|frontAndBack) (number, mass)
      - escape                      = 0, 0
      - stick                       = 0, 0
    Rotational kinetic energy       = 2.91262e-05

PIMPLE: iteration 1
smoothSolver:  Solving for U.airx, Initial residual = 0.108393, Final residual = 3.13608e-06, No Iterations 1
smoothSolver:  Solving for U.airy, Initial residual = 0.178412, Final residual = 2.96276e-06, No Iterations 1
smoothSolver:  Solving for U.airz, Initial residual = 0.0378812, Final residual = 1.08607e-06, No Iterations 1
GAMG:  Solving for p, Initial residual = 0.733169, Final residual = 0.00421259, No Iterations 3
time step continuity errors : sum local = 1.00718e-05, global = 2.44481e-07, cumulative = 2.8091e-05
GAMG:  Solving for p, Initial residual = 0.00954138, Final residual = 7.75688e-07, No Iterations 24
time step continuity errors : sum local = 1.79683e-09, global = 3.97115e-10, cumulative = 2.80914e-05
ExecutionTime = 624.47 s  ClockTime = 624 s

Courant Number mean: 0.0115778 max: 0.0729254
Time = 0.03654

Evolving kinematicCloud

Solving3-D cloud kinematicCloud
    4 move-collide subCycles
Cloud: kinematicCloud
    Current number of parcels       = 24750
    Current mass in system          = 0.511478
    Linear momentum                 = (-0.000102337 -1.20393e-05 -0.109303)
   |Linear momentum|                = 0.109303
    Linear kinetic energy           = 0.0143576
    Average particle per parcel     = 1
    Injector model1:
      - parcels added               = 24750
      - mass introduced             = 0.511478
    Surface film:
      - parcels absorbed            = 0
      - mass absorbed               = 0
      - parcels ejected             = 0
    Parcel fate: system (number, mass)
      - escape                      = 0, 0
    Parcel fate: patch (top|bottom|walls|frontAndBack) (number, mass)
      - escape                      = 0, 0
      - stick                       = 0, 0
    Rotational kinetic energy       = 2.92197e-05

PIMPLE: iteration 1
smoothSolver:  Solving for U.airx, Initial residual = 0.112179, Final residual = 3.20747e-06, No Iterations 1
smoothSolver:  Solving for U.airy, Initial residual = 0.189419, Final residual = 3.18837e-06, No Iterations 1
smoothSolver:  Solving for U.airz, Initial residual = 0.0406853, Final residual = 1.13131e-06, No Iterations 1
GAMG:  Solving for p, Initial residual = 0.779072, Final residual = 0.00661631, No Iterations 3
time step continuity errors : sum local = 1.29263e-05, global = -1.92579e-07, cumulative = 2.78989e-05
GAMG:  Solving for p, Initial residual = 0.0124742, Final residual = 8.03417e-07, No Iterations 23
time step continuity errors : sum local = 1.42422e-09, global = -4.80934e-10, cumulative = 2.78984e-05
ExecutionTime = 624.84 s  ClockTime = 625 s

Courant Number mean: 0.0114741 max: 0.049591
Time = 0.03656

Evolving kinematicCloud

Solving3-D cloud kinematicCloud
    4 move-collide subCycles
Cloud: kinematicCloud
    Current number of parcels       = 24750
    Current mass in system          = 0.511478
    Linear momentum                 = (-0.000102312 -1.18583e-05 -0.10936)
   |Linear momentum|                = 0.10936
    Linear kinetic energy           = 0.0143742
    Average particle per parcel     = 1
    Injector model1:
      - parcels added               = 24750
      - mass introduced             = 0.511478
    Surface film:
      - parcels absorbed            = 0
      - mass absorbed               = 0
      - parcels ejected             = 0
    Parcel fate: system (number, mass)
      - escape                      = 0, 0
    Parcel fate: patch (top|bottom|walls|frontAndBack) (number, mass)
      - escape                      = 0, 0
      - stick                       = 0, 0
    Rotational kinetic energy       = 2.93279e-05

PIMPLE: iteration 1
smoothSolver:  Solving for U.airx, Initial residual = 0.0919299, Final residual = 2.87961e-06, No Iterations 1
smoothSolver:  Solving for U.airy, Initial residual = 0.164039, Final residual = 2.58635e-06, No Iterations 1
smoothSolver:  Solving for U.airz, Initial residual = 0.0331038, Final residual = 9.0914e-07, No Iterations 1
GAMG:  Solving for p, Initial residual = 0.675213, Final residual = 0.00626808, No Iterations 3
time step continuity errors : sum local = 1.16062e-05, global = 1.76565e-07, cumulative = 2.80749e-05
GAMG:  Solving for p, Initial residual = 0.0104695, Final residual = 8.57464e-07, No Iterations 21
time step continuity errors : sum local = 1.50543e-09, global = 5.08734e-10, cumulative = 2.80754e-05
ExecutionTime = 625.2 s  ClockTime = 625 s

Courant Number mean: 0.0114746 max: 0.0534532
Time = 0.03658

Evolving kinematicCloud

Solving3-D cloud kinematicCloud
    4 move-collide subCycles
Cloud: kinematicCloud
    Current number of parcels       = 24750
    Current mass in system          = 0.511478
    Linear momentum                 = (-0.000102393 -1.15653e-05 -0.109417)
   |Linear momentum|                = 0.109417
    Linear kinetic energy           = 0.0143901
    Average particle per parcel     = 1
    Injector model1:
      - parcels added               = 24750
      - mass introduced             = 0.511478
    Surface film:
      - parcels absorbed            = 0
      - mass absorbed               = 0
      - parcels ejected             = 0
    Parcel fate: system (number, mass)
      - escape                      = 0, 0
    Parcel fate: patch (top|bottom|walls|frontAndBack) (number, mass)
      - escape                      = 0, 0
      - stick                       = 0, 0
    Rotational kinetic energy       = 2.93985e-05

PIMPLE: iteration 1
smoothSolver:  Solving for U.airx, Initial residual = 0.079257, Final residual = 2.26393e-06, No Iterations 1
smoothSolver:  Solving for U.airy, Initial residual = 0.144593, Final residual = 2.13392e-06, No Iterations 1
smoothSolver:  Solving for U.airz, Initial residual = 0.029251, Final residual = 7.05259e-07, No Iterations 1
GAMG:  Solving for p, Initial residual = 0.685126, Final residual = 0.00322871, No Iterations 4
time step continuity errors : sum local = 5.24955e-06, global = -4.0807e-07, cumulative = 2.76674e-05
GAMG:  Solving for p, Initial residual = 0.00836273, Final residual = 8.52956e-07, No Iterations 19
time step continuity errors : sum local = 1.37877e-09, global = -4.64889e-10, cumulative = 2.76669e-05
ExecutionTime = 625.57 s  ClockTime = 625 s

Courant Number mean: 0.0113987 max: 0.0472669
Time = 0.0366

Evolving kinematicCloud

Solving3-D cloud kinematicCloud
    4 move-collide subCycles
Cloud: kinematicCloud
    Current number of parcels       = 24750
    Current mass in system          = 0.511478
    Linear momentum                 = (-0.000102429 -1.13595e-05 -0.109476)
   |Linear momentum|                = 0.109476
    Linear kinetic energy           = 0.0144043
    Average particle per parcel     = 1
    Injector model1:
      - parcels added               = 24750
      - mass introduced             = 0.511478
    Surface film:
      - parcels absorbed            = 0
      - mass absorbed               = 0
      - parcels ejected             = 0
    Parcel fate: system (number, mass)
      - escape                      = 0, 0
    Parcel fate: patch (top|bottom|walls|frontAndBack) (number, mass)
      - escape                      = 0, 0
      - stick                       = 0, 0
    Rotational kinetic energy       = 2.94364e-05

PIMPLE: iteration 1
smoothSolver:  Solving for U.airx, Initial residual = 0.0713662, Final residual = 2.03367e-06, No Iterations 1
smoothSolver:  Solving for U.airy, Initial residual = 0.134275, Final residual = 2.24593e-06, No Iterations 1
smoothSolver:  Solving for U.airz, Initial residual = 0.0282192, Final residual = 7.42786e-07, No Iterations 1
GAMG:  Solving for p, Initial residual = 0.6598, Final residual = 0.0024781, No Iterations 4
time step continuity errors : sum local = 4.60071e-06, global = 2.12663e-07, cumulative = 2.78796e-05
GAMG:  Solving for p, Initial residual = 0.00695581, Final residual = 6.65735e-07, No Iterations 13
time step continuity errors : sum local = 1.32983e-09, global = 6.12674e-10, cumulative = 2.78802e-05
ExecutionTime = 625.95 s  ClockTime = 626 s


    From virtual bool Foam::regIOobject::readIfModified()
    in file db/regIOobject/regIOobjectRead.C at line 271
        Re-reading object controlDict from file "/home/juan/OpenFOAM/juan-v2306/run/Skill_Lync/Introduction_to_OpenFOAM_development/Week4/myGoldschmidt/system/controlDict"
End

